/batch
/config,noeldb,1     ! force off writing results to database
*get,_wallstrt,active,,time,wall
! ANSYS input file written by Workbench version 2023 R2
! File used for geometry attach: E:\GitHub_repos\FEA_projects\HW2\HW2_files\dp0\SYS-3\DM\SYS-3.scdoc
/title,HW2--Steady-State Thermal (F5)
! ****** Begin Custom Load Command Snippet ******
/COM, ACT Extensions:
/COM,     LSDYNA, 2023.2
/COM,     5f463412-bd3e-484b-87e7-cbc0a665e474, wbex
/COM,/COM,     ANSYSMotion, 2023.2
/COM,     20180725-3f81-49eb-9f31-41364844c769, wbex
/COM,
! ****** End   Custom Load Command Snippet ******
*DIM,_wb_ProjectScratch_dir,string,248
_wb_ProjectScratch_dir(1) = 'E:\GitHub_repos\FEA_projects\HW2\_ProjectScratch\Scr605D\'
*DIM,_wb_SolverFiles_dir,string,248
_wb_SolverFiles_dir(1) = 'E:\GitHub_repos\FEA_projects\HW2\HW2_files\dp0\SYS-3\MECH\'
*DIM,_wb_userfiles_dir,string,248
_wb_userfiles_dir(1) = 'E:\GitHub_repos\FEA_projects\HW2\HW2_files\user_files\'
/com,--- Data in consistent MKS units. See Solving Units in the help system for more information.
/units,MKS
/nopr
/wb,file,start              !  signify a WB generated input file
/prep7
! Turn off shape checking because checks already performed inside WB mesher.
! See help system for more information.
SHPP,OFF,,NOWARN
/nolist
etcon,set             ! allow ANSYS to choose best KEYOP's for 180x elements, resets any applicable keyopt to MAPDL defaults
/com,*********** Nodes for the whole assembly ***********
nblock,3,,14785
(1i9,3e20.9e3)
        1     1.900000000E-01    -3.238896804E-02    -2.236575905E-02
        2     1.900000000E-01    -9.958946782E-03    -3.903754698E-02
        3     1.900000000E-01    -3.048698235E-03    -4.035698268E-02
        4     1.900000000E-01    -2.352111325E-02     3.318679313E-02
        5     1.900000000E-01    -2.764457204E-02     2.935566833E-02
        6     1.800000000E-01    -3.238904200E-02    -2.236561660E-02
        7     1.800000000E-01    -9.959174074E-03    -3.903745708E-02
        8     1.800000000E-01    -3.048797692E-03    -4.035697067E-02
        9     1.800000000E-01    -2.352156897E-02     3.318647770E-02
       10     1.800000000E-01    -2.764492901E-02     2.935537203E-02
       11     1.700000000E-01    -3.238911595E-02    -2.236547416E-02
       12     1.700000000E-01    -9.959401366E-03    -3.903736717E-02
       13     1.700000000E-01    -3.048897148E-03    -4.035695866E-02
       14     1.700000000E-01    -2.352202469E-02     3.318616226E-02
       15     1.700000000E-01    -2.764528598E-02     2.935507573E-02
       16     1.600000000E-01    -3.238918990E-02    -2.236533171E-02
       17     1.600000000E-01    -9.959628656E-03    -3.903727726E-02
       18     1.600000000E-01    -3.048996604E-03    -4.035694665E-02
       19     1.600000000E-01    -2.352248040E-02     3.318584681E-02
       20     1.600000000E-01    -2.764564295E-02     2.935477942E-02
! ... 13422 like lines cut
/wb,elem,start            !  set before creation of elements
/com,*********** Elements for Body 1 "SYS-3\Solid" ***********
et,1,279
eblock,19,solid,,870
(19i9)
        1        1        1        1        0        0        0        0       20        0        1     1201     1255     1256     1202     1228     1406     1407     1227
     4680     4797     4683     4678     4738     5080     4736     4735     4679     4799     4802     4682
        1        1        1        1        0        0        0        0       20        0        2     1175     1269     1270     1176     1201     1255     1256     1202
     4606     4831     4609     4604     4680     4797     4683     4678     4605     4798     4801     4608
        1        1        1        1        0        0        0        0       20        0        3     1149     1283     1284     1150     1175     1269     1270     1176
     4532     4860     4535     4530     4606     4831     4609     4604     4531     4832     4834     4534
        1        1        1        1        0        0        0        0       20        0        4     1123     1297     1298     1124     1149     1283     1284     1150
     4458     4889     4461     4456     4532     4860     4535     4530     4457     4861     4863     4460
        1        1        1        1        0        0        0        0       20        0        5     1097     1311     1312     1098     1123     1297     1298     1124
     4384     4918     4387     4382     4458     4889     4461     4456     4383     4890     4892     4386
        1        1        1        1        0        0        0        0       20        0        6     1071     1325     1326     1072     1097     1311     1312     1098
     4310     4947     4313     4308     4384     4918     4387     4382     4309     4919     4921     4312
        1        1        1        1        0        0        0        0       20        0        7     1045     1339     1340     1046     1071     1325     1326     1072
     4236     4976     4239     4234     4310     4947     4313     4308     4235     4948     4950     4238
        1        1        1        1        0        0        0        0       20        0        8     1019     1353     1354     1020     1045     1339     1340     1046
     4162     5005     4165     4160     4236     4976     4239     4234     4161     4977     4979     4164
        1        1        1        1        0        0        0        0       20        0        9      993     1367     1368      994     1019     1353     1354     1020
     4088     5034     4091     4086     4162     5005     4165     4160     4087     5006     5008     4090
        1        1        1        1        0        0        0        0       20        0       10      967     1381     1382      968      993     1367     1368      994
     4014     5054     4017     4012     4088     5034     4091     4086     4013     5035     5037     4016
! ... 1721 like lines cut
!Material Id = {D7314464-659C-4EB0-940A-50CAFD885824}
/com,*********** Elements for Body 2 "SYS-3\Solid" ***********
et,2,279
eblock,19,solid,,1260
(19i9)
        2        2        2        2        0        0        0        0       20        0      871     6351     6848     6849     6352     6389     7236     7235     6388
    11246    12267    11249    11244    11334    13044    11332    11331    11245    12269    12272    11248
        2        2        2        2        0        0        0        0       20        0      872     6318     6877     6878     6319     6351     6848     6849     6352
    11148    12337    11151    11146    11246    12267    11249    11244    11147    12268    12271    11150
        2        2        2        2        0        0        0        0       20        0      873     6285     6906     6907     6286     6318     6877     6878     6319
    11050    12396    11053    11048    11148    12337    11151    11146    11049    12338    12340    11052
        2        2        2        2        0        0        0        0       20        0      874     6252     6935     6936     6253     6285     6906     6907     6286
    10952    12455    10955    10950    11050    12396    11053    11048    10951    12397    12399    10954
        2        2        2        2        0        0        0        0       20        0      875     6219     6964     6965     6220     6252     6935     6936     6253
    10854    12514    10857    10852    10952    12455    10955    10950    10853    12456    12458    10856
        2        2        2        2        0        0        0        0       20        0      876     6186     6993     6994     6187     6219     6964     6965     6220
    10756    12573    10759    10754    10854    12514    10857    10852    10755    12515    12517    10758
        2        2        2        2        0        0        0        0       20        0      877     6153     7022     7023     6154     6186     6993     6994     6187
    10658    12632    10661    10656    10756    12573    10759    10754    10657    12574    12576    10660
        2        2        2        2        0        0        0        0       20        0      878     6120     7051     7052     6121     6153     7022     7023     6154
    10560    12691    10563    10558    10658    12632    10661    10656    10559    12633    12635    10562
        2        2        2        2        0        0        0        0       20        0      879     6087     7080     7081     6088     6120     7051     7052     6121
    10462    12750    10465    10460    10560    12691    10563    10558    10461    12692    12694    10464
        2        2        2        2        0        0        0        0       20        0      880     6054     7109     7110     6055     6087     7080     7081     6088
    10364    12809    10367    10362    10462    12750    10465    10460    10363    12751    12753    10366
! ... 2501 like lines cut
!Material Id = {ACB8CFF7-AE9C-480E-B110-7FB93A031748}
/wb,elem,end               !  done creating elements
/com,*********** Send User Defined Coordinate System(s) ***********
csys,0
toffst,273.15,  ! Temperature offset from absolute zero
/wb,mat,start              !  starting to send materials
/com,*********** Send Materials ***********
Temperature = 'TEMP' ! Temperature
MP,DENS,1,7200,	! kg m^-3
MP,ALPX,1,1.1e-05,	! C^-1
MP,C,1,447,	! J kg^-1 C^-1
MPTEMP,,,,,,,,
MPTEMP,1,20
MPTEMP,2,100
MPTEMP,3,200
MPTEMP,4,300
MPTEMP,5,400
MPTEMP,6,500
MPDATA,KXX,1, ,51.6,50.8,49.8,48.8,47.8,46.8,	! W m^-1 C^-1
MPTEMP,,,,,,,,
MP,RSVX,1,9.6e-08,	! kg m^3 A^-2 s^-3
MP,EX,1,110000000000,	! Pa
MP,NUXY,1,0.28,
MP,MURX,1,10000,
MP,UVID,1,abb1cb32-abd8-4032-81aa-da7234f99931
MP,UMID,1,f60bcced-8a07-4217-aedb-972d67ace671

MP,KXX,2,0.2,	! W m^-1 C^-1
MP,UVID,2,686bc1e1-142b-43a5-a2d6-62882b952aa6

/wb,mat,end                !  done sending materials
!************************* Model Summary ********************
!SYS-3\Solid,	Gray Cast Iron,	matid,	1
!SYS-3\Solid,	Insulation,	matid,	2
!************************* End Model Summary ********************
! get the diagonal of the bounding box. Needed later for other things
*get,_xmin,node,,mnloc,x
*get,_ymin,node,,mnloc,y
*get,_zmin,node,,mnloc,z
*get,_xmax,node,,mxloc,x
*get,_ymax,node,,mxloc,y
*get,_zmax,node,,mxloc,z
_ASMDIAG=(_xmax-_xmin)*(_xmax-_xmin)+(_ymax-_ymin)*(_ymax-_ymin)+(_zmax-_zmin)*(_zmax-_zmin)
_ASMDIAG=SQRT(_ASMDIAG)
/wb,contact,start          !  starting to send contact
/com,*********** Create Contact "Contact Region" ***********
/com,            Real Constant Set For Above Contact Is 4 & 3 
*set,tid,4
*set,cid,3
r,tid
r,cid
et,tid,170
et,cid,174
eblock,10,,,783
(15i9)
     5721        4        4        4        0      454      452      170      172     2791     2009     2008     2012
     5722        4        4        4        0      464      453      218      463     2792     2150     2151     2813
     5723        4        4        4        0      454      455      426      452     2795     2743     2742     2791
     5724        4        4        4        0      455      456      400      426     2797     2669     2668     2743
     5725        4        4        4        0      456      457      374      400     2799     2595     2594     2669
     5726        4        4        4        0      457      458      348      374     2801     2521     2520     2595
     5727        4        4        4        0      458      459      322      348     2803     2447     2446     2521
     5728        4        4        4        0      459      460      296      322     2805     2373     2372     2447
     5729        4        4        4        0      460      461      270      296     2807     2299     2298     2373
     5730        4        4        4        0      461      462      244      270     2809     2225     2224     2299
     5731        4        4        4        0      462      463      218      244     2811     2151     2149     2225
     5732        4        4        4        0      463      193      489      464     2054     2055     2815     2813
     5733        4        4        4        0      462      219      193      463     2154     2053     2054     2811
     5734        4        4        4        0      461      245      219      462     2228     2153     2154     2809
     5735        4        4        4        0      460      271      245      461     2302     2227     2228     2807
     5736        4        4        4        0      459      297      271      460     2376     2301     2302     2805
     5737        4        4        4        0      458      323      297      459     2450     2375     2376     2803
     5738        4        4        4        0      457      349      323      458     2524     2449     2450     2801
     5739        4        4        4        0      456      375      349      457     2598     2523     2524     2799
     5740        4        4        4        0      455      401      375      456     2672     2597     2598     2797
! ... 764 like lines cut
eblock,10,,,783
(15i9)
     6504        3        3        3        0      454      452      170      172     2791     2009     2008     2012
     6505        3        3        3        0      464      453      218      463     2792     2150     2151     2813
     6506        3        3        3        0      454      455      426      452     2795     2743     2742     2791
     6507        3        3        3        0      455      456      400      426     2797     2669     2668     2743
     6508        3        3        3        0      456      457      374      400     2799     2595     2594     2669
     6509        3        3        3        0      457      458      348      374     2801     2521     2520     2595
     6510        3        3        3        0      458      459      322      348     2803     2447     2446     2521
     6511        3        3        3        0      459      460      296      322     2805     2373     2372     2447
     6512        3        3        3        0      460      461      270      296     2807     2299     2298     2373
     6513        3        3        3        0      461      462      244      270     2809     2225     2224     2299
     6514        3        3        3        0      462      463      218      244     2811     2151     2149     2225
     6515        3        3        3        0      463      193      489      464     2054     2055     2815     2813
     6516        3        3        3        0      462      219      193      463     2154     2053     2054     2811
     6517        3        3        3        0      461      245      219      462     2228     2153     2154     2809
     6518        3        3        3        0      460      271      245      461     2302     2227     2228     2807
     6519        3        3        3        0      459      297      271      460     2376     2301     2302     2805
     6520        3        3        3        0      458      323      297      459     2450     2375     2376     2803
     6521        3        3        3        0      457      349      323      458     2524     2449     2450     2801
     6522        3        3        3        0      456      375      349      457     2598     2523     2524     2799
     6523        3        3        3        0      455      401      375      456     2672     2597     2598     2797
! ... 764 like lines cut
eblock,10,,,1050
(15i9)
     7287        3        4        3        0     7178     7210     7209     7207    12951    13013    13008    12950
     7288        3        4        3        0     7208     7223     7222     6830    13011    13028    12215    12214
     7289        3        4        3        0     7178     7149     7211     7210    12891    12892    13016    12951
     7290        3        4        3        0     7149     7120     7212     7211    12832    12833    13017    12892
     7291        3        4        3        0     7120     7091     7213     7212    12773    12774    13018    12833
     7292        3        4        3        0     7091     7062     7214     7213    12714    12715    13019    12774
     7293        3        4        3        0     7062     7033     7215     7214    12655    12656    13020    12715
     7294        3        4        3        0     7033     7004     7216     7215    12596    12597    13021    12656
     7295        3        4        3        0     7004     6975     7217     7216    12537    12538    13022    12597
     7296        3        4        3        0     6975     6946     7218     7217    12478    12479    13023    12538
     7297        3        4        3        0     6946     6917     7219     7218    12419    12420    13024    12479
     7298        3        4        3        0     6917     6888     7220     7219    12360    12361    13025    12420
     7299        3        4        3        0     6888     6859     7221     7220    12301    12302    13026    12361
     7300        3        4        3        0     6859     6830     7222     7221    12213    12215    13027    12302
     7301        3        4        3        0     6830     6831     7253     7208    12212    12218    13012    12214
     7302        3        4        3        0     6859     6860     6831     6830    12300    12217    12212    12213
     7303        3        4        3        0     6888     6889     6860     6859    12359    12304    12300    12301
     7304        3        4        3        0     6917     6918     6889     6888    12418    12363    12359    12360
     7305        3        4        3        0     6946     6947     6918     6917    12477    12422    12418    12419
     7306        3        4        3        0     6975     6976     6947     6946    12536    12481    12477    12478
! ... 1031 like lines cut
eblock,10,,,1050
(15i9)
     8337        4        3        4        0     7178     7210     7209     7207    12951    13013    13008    12950
     8338        4        3        4        0     7208     7223     7222     6830    13011    13028    12215    12214
     8339        4        3        4        0     7178     7149     7211     7210    12891    12892    13016    12951
     8340        4        3        4        0     7149     7120     7212     7211    12832    12833    13017    12892
     8341        4        3        4        0     7120     7091     7213     7212    12773    12774    13018    12833
     8342        4        3        4        0     7091     7062     7214     7213    12714    12715    13019    12774
     8343        4        3        4        0     7062     7033     7215     7214    12655    12656    13020    12715
     8344        4        3        4        0     7033     7004     7216     7215    12596    12597    13021    12656
     8345        4        3        4        0     7004     6975     7217     7216    12537    12538    13022    12597
     8346        4        3        4        0     6975     6946     7218     7217    12478    12479    13023    12538
     8347        4        3        4        0     6946     6917     7219     7218    12419    12420    13024    12479
     8348        4        3        4        0     6917     6888     7220     7219    12360    12361    13025    12420
     8349        4        3        4        0     6888     6859     7221     7220    12301    12302    13026    12361
     8350        4        3        4        0     6859     6830     7222     7221    12213    12215    13027    12302
     8351        4        3        4        0     6830     6831     7253     7208    12212    12218    13012    12214
     8352        4        3        4        0     6859     6860     6831     6830    12300    12217    12212    12213
     8353        4        3        4        0     6888     6889     6860     6859    12359    12304    12300    12301
     8354        4        3        4        0     6917     6918     6889     6888    12418    12363    12359    12360
     8355        4        3        4        0     6946     6947     6918     6917    12477    12422    12418    12419
     8356        4        3        4        0     6975     6976     6947     6946    12536    12481    12477    12478
! ... 1031 like lines cut
keyo,cid,8,2               ! auto create asymmetric contact (from Program Controlled setting)
keyo,cid,10,0              ! adjust contact stiffness each NR iteration (from Program Controlled setting)
keyo,cid,12,5              ! bonded always
keyo,cid,18,1              ! small sliding turned on by application
keyo,cid,2,0               ! augmented Lagrange (from Program Controlled setting)
keyo,cid,4,0               ! on Gauss point (from Program Controlled setting)
keyo,cid,9,1               ! ignore initial gaps/penetration
keyo,cid,7,0               ! No Prediction
rmod,tid,3,10.      ! FKN
rmod,tid,5,0.       ! ICONT
rmod,tid,6,0.       ! PINB
rmod,tid,10,0.      ! CNOF
rmod,tid,12,0.      ! FKT
rmod,tid,36,32      ! WB DSID
rmod,cid,3,10.      ! FKN
rmod,cid,5,0.       ! ICONT
rmod,cid,6,0.       ! PINB
rmod,cid,10,0.      ! CNOF
rmod,cid,12,0.      ! FKT
rmod,cid,36,32      ! WB DSID
*set,_maxkxx,516000.
rmod,cid,14,_maxkxx/_ASMDIAG         ! TCC, Divide by Length since Traction Based
rmod,tid,14,_maxkxx/_ASMDIAG      ! TCC, Divide by Length since Traction Based
keyo,cid,1,2     ! Pure thermal contact
nsel,all
esel,all
/wb,contact,end            !  done creating contacts
/golist
/wb,load,start             !  starting to send loads
fcum,add                   ! add nodal forces up (needed in case have loads on the same edge,vertex)
fcum                       ! reset default on fcum command since done sending WB F loads
/com,*********** Create "Convection" ***********
et,5,152
eblock,10,,,435
(15i9)
     9387        5        5        5        0      616      631      164      151     3164     1994     1947     1949
     9388        5        5        5        0      630      641      640      490     3178     3190     2891     2890
     9389        5        5        5        0      616      602      632      631     3135     3136     3181     3164
     9390        5        5        5        0      602      588      633      632     3106     3107     3182     3136
     9391        5        5        5        0      588      574      634      633     3077     3078     3183     3107
     9392        5        5        5        0      574      560      635      634     3048     3049     3184     3078
     9393        5        5        5        0      560      546      636      635     3019     3020     3185     3049
     9394        5        5        5        0      546      532      637      636     2990     2991     3186     3020
     9395        5        5        5        0      532      518      638      637     2961     2962     3187     2991
     9396        5        5        5        0      518      504      639      638     2932     2933     3188     2962
     9397        5        5        5        0      504      490      640      639     2889     2891     3189     2933
     9398        5        5        5        0      490      491      654      630     2888     2894     3179     2890
     9399        5        5        5        0      504      505      491      490     2931     2893     2888     2889
     9400        5        5        5        0      518      519      505      504     2960     2935     2931     2932
     9401        5        5        5        0      532      533      519      518     2989     2964     2960     2961
     9402        5        5        5        0      546      547      533      532     3018     2993     2989     2990
     9403        5        5        5        0      560      561      547      546     3047     3022     3018     3019
     9404        5        5        5        0      574      575      561      560     3076     3051     3047     3048
     9405        5        5        5        0      588      589      575      574     3105     3080     3076     3077
     9406        5        5        5        0      602      603      589      588     3134     3109     3105     3106
! ... 416 like lines cut
esel,s,type,,5
keyop,5,8,2.
keyop,5,13,0
/com,*********** Create "Convection 2" ***********
et,6,152
eblock,10,,,1190
(15i9)
     9822        6        6        6        0     5902     5933     6364     5934     9914    10004    10008     9915
     9823        6        6        6        0     6330     6376     6377     6363    11184    11307    11280    11183
     9824        6        6        6        0     5967     5934     6364     6365    10007    10008    11283    10106
     9825        6        6        6        0     6000     5967     6365     6366    10105    10106    11285    10204
     9826        6        6        6        0     6033     6000     6366     6367    10203    10204    11287    10302
     9827        6        6        6        0     6066     6033     6367     6368    10301    10302    11289    10400
     9828        6        6        6        0     6099     6066     6368     6369    10399    10400    11291    10498
     9829        6        6        6        0     6132     6099     6369     6370    10497    10498    11293    10596
     9830        6        6        6        0     6165     6132     6370     6371    10595    10596    11295    10694
     9831        6        6        6        0     6198     6165     6371     6372    10693    10694    11297    10792
     9832        6        6        6        0     6231     6198     6372     6373    10791    10792    11299    10890
     9833        6        6        6        0     6264     6231     6373     6374    10889    10890    11301    10988
     9834        6        6        6        0     6297     6264     6374     6375    10987    10988    11303    11086
     9835        6        6        6        0     6330     6297     6375     6376    11085    11086    11305    11184
     9836        6        6        6        0     5934     5935     5903     5902    10006     9918     9913     9915
     9837        6        6        6        0     5967     5968     5935     5934    10104    10011    10006    10007
     9838        6        6        6        0     6000     6001     5968     5967    10202    10109    10104    10105
     9839        6        6        6        0     6033     6034     6001     6000    10300    10207    10202    10203
     9840        6        6        6        0     6066     6067     6034     6033    10398    10305    10300    10301
     9841        6        6        6        0     6099     6100     6067     6066    10496    10403    10398    10399
! ... 1171 like lines cut
esel,s,type,,6
keyop,6,8,2.
keyop,6,13,0
esel,all
/com,***************** Define Uniform Initial temperature ***************
tunif,22.
/gst,on,on
fini
*get,_numnode,node,0,count
*get,_numelem,elem,0,count
*get, _MAXELEMNUM, elem, 0, NUM, MAX
*get, _MAXNODENUM, node, 0, NUM, MAX
*get, _MAXELEMTYPE, etyp, 0, NUM, MAX
*get, _MAXREALCONST, rcon, 0, NUM, MAX
/go
/wb,load,end               !  done creating loads
/com,--- Number of total nodes = %_numnode%
/com,--- Number of contact elements = 5291
/com,--- Number of spring elements = 0
/com,--- Number of bearing elements = 0
/com,--- Number of solid elements = 2130
/com,--- Number of condensed parts = 0
/com,--- Number of total elements = %_numelem%
*get,_wallbsol,active,,time,wall
/com,****************************************************************************
/com,*************************    SOLUTION       ********************************
/com,****************************************************************************
/solu
antype,0                   ! static analysis
!eqsl,sparse               ! using sparse solver which is default so no eqsl command needed
cntr,print,1               ! print out contact info and also make no initial contact an error
cncheck,dmp		!	Enable program controlled contact splitting for distributed memory parallel run
rescontrol,,none                 ! Do not keep any restart files
dmpoption,emat,no             ! Don't combine emat file for DANSYS
dmpoption,esav,no             ! Don't combine esav file for DANSYS
/com,****************************************************
/com,******************* SOLVE FOR LS 1 OF 1 ****************
esel,s,type,,5
nsle
sf,all,conv,20.,150.
esel,s,type,,6
nsle
sf,all,conv,3.7,20.
nsel,all
esel,all
/nopr
/gopr
autots,on
nsub,1,10,1
time,1.
outres,erase
outres,all,none
outres,nsol,all
outres,rsol,all
outres,eangl,all
outres,veng,all
outres,fflux,all
outres,cont,all
/nopr
esel,s,type,,5
esel,a,type,,6
cm,_elmisc,elem
esel,all
/gopr
outres,misc,all,_elmisc
cnvtol,heat,,.001,,1.e-006    ! Program Controlled. Set MINREF equivalent of 1e-6 Watts
! *********** WB SOLVE COMMAND ***********
! check interactive state
*get,ANSINTER_,active,,int
*if,ANSINTER_,ne,0,then
/eof
*endif
solve
/com *************** Write FE CONNECTORS ********* 
CEWRITE,file,ce,,INTE
/com,****************************************************
/com,*************** FINISHED SOLVE FOR LS 1 *************
*get,_wallasol,active,,time,wall
/post1
xmlo,ENCODING,ISO-8859-1
xmlo,parm
/xml,parm,xml
fini
/gopr
*get,_walldone,active,,time,wall
_preptime=(_wallbsol-_wallstrt)*3600
_solvtime=(_wallasol-_wallbsol)*3600
_posttime=(_walldone-_wallasol)*3600
_totaltim=(_walldone-_wallstrt)*3600
*get,_dlbratio,active,0,solu,dlbr
*get,_combtime,active,0,solu,comb
*get,_ssmode,active,0,solu,ssmm
*get,_ndofs,active,0,solu,ndof
/fclean				!clean distributed files
/com,--- Total number of nodes = %_numnode%
/com,--- Total number of elements = %_numelem%
/com,--- Element load balance ratio = %_dlbratio%
/com,--- Time to combine distributed files = %_combtime%
/com,--- Sparse memory mode = %_ssmode%
/com,--- Number of DOF = %_ndofs%
/wb,file,end               ! done with WB generated input
