/batch
/config,noeldb,1     ! force off writing results to database
*get,_wallstrt,active,,time,wall
! ANSYS input file written by Workbench version 2023 R2
! File used for geometry attach: E:\GitHub_repos\FEA_projects\HW3\Valve_no support_0.25.scdoc
/title,wbnew--Static Structural (A5)
! ****** Begin Custom Load Command Snippet ******
/COM, ACT Extensions:
/COM,     LSDYNA, 2023.2
/COM,     5f463412-bd3e-484b-87e7-cbc0a665e474, wbex
/COM,/COM,     ANSYSMotion, 2023.2
/COM,     20180725-3f81-49eb-9f31-41364844c769, wbex
/COM,
! ****** End   Custom Load Command Snippet ******
*DIM,_wb_ProjectScratch_dir,string,248
_wb_ProjectScratch_dir(1) = 'C:\Users\timle\AppData\Local\Temp\WB_timle_15148_2\_ProjectScratch\Scr8B54\'
*DIM,_wb_SolverFiles_dir,string,248
_wb_SolverFiles_dir(1) = 'C:\Users\timle\AppData\Local\Temp\WB_timle_15148_2\wbnew_files\dp0\SYS\MECH\'
*DIM,_wb_userfiles_dir,string,248
_wb_userfiles_dir(1) = 'C:\Users\timle\AppData\Local\Temp\WB_timle_15148_2\wbnew_files\user_files\'
/com,--- Data in consistent MKS units. See Solving Units in the help system for more information.
/units,MKS
/nopr
/wb,file,start              !  signify a WB generated input file
/prep7
! Turn off shape checking because checks already performed inside WB mesher.
! See help system for more information.
SHPP,OFF,,NOWARN
/nolist
etcon,set             ! allow ANSYS to choose best KEYOP's for 180x elements, resets any applicable keyopt to MAPDL defaults
/com,*********** Nodes for the whole assembly ***********
nblock,3,,12483
(1i9,3e20.9e3)
        1    -2.696264830E-03    -1.852480820E-01    -8.602396744E-02
        2    -1.016713775E-02    -1.797228543E-01    -9.072232963E-02
        3    -5.609244198E-03    -1.937415528E-01    -8.722109063E-02
        4    -1.705030141E-02    -1.917403866E-01    -1.014237447E-01
        5    -1.329205490E-02    -1.864306936E-01    -8.365719683E-02
        6    -1.274203966E-02    -1.864013075E-01    -9.411504219E-02
        7    -8.024924351E-03    -1.854456860E-01    -9.322869369E-02
        8    -3.135945847E-03    -1.900167086E-01    -1.122994335E-01
        9    -1.079598065E-02    -1.899664003E-01    -1.126525764E-01
       10    -6.643919229E-03    -1.817959338E-01    -1.121719620E-01
       11    -1.282082397E-02    -1.827152014E-01    -1.069117337E-01
       12    -1.047503322E-02    -1.833151399E-01    -9.927634331E-02
       13    -1.047047792E-02    -1.796869796E-01    -1.007868241E-01
       14    -5.657244705E-03    -1.813659750E-01    -7.623550278E-02
       15    -1.046810727E-02    -1.816400743E-01    -1.008177593E-01
       16    -1.049742309E-02    -1.854727875E-01    -9.976738787E-02
       17    -9.712793210E-03    -1.876984118E-01    -9.601105928E-02
       18    -1.027894953E-02    -1.872416751E-01    -9.785682559E-02
       19    -8.786216298E-03    -1.790825410E-01    -1.057491219E-01
       20    -9.565530690E-03    -1.916945007E-01    -9.566980109E-02
! ... 11330 like lines cut
/wb,elem,start            !  set before creation of elements
/com,*********** Elements for Body 1 "Valve_no support_0.25\Solid1" ***********
et,1,187
eblock,19,solid,,5565
(19i9)
        1        1        1        1        0        0        0        0       10        0        1     1275      170       13       31     2068     2234     2150     2088
     2257     2235
        1        1        1        1        0        0        0        0       10        0        2       31     1275      172       13     2088     2154     2259     2235
     2150     2236
        1        1        1        1        0        0        0        0       10        0        3        4     1206      842      488     2100     2912     1998     2075
     6270    11017
        1        1        1        1        0        0        0        0       10        0        4       15      170     1275       12     2231     2068     2019     2131
     2130     2093
        1        1        1        1        0        0        0        0       10        0        5       28      167       24       11     2295     2278     2281     2066
     2172     2148
        1        1        1        1        0        0        0        0       10        0        6     1275       13      170       15     2150     2234     2068     2019
     2232     2231
        1        1        1        1        0        0        0        0       10        0        7        4     1274      166       20     2017     2290     2070     2098
     2274     2277
        1        1        1        1        0        0        0        0       10        0        8       31     1271      172     1275     2089     2153     2259     2088
     8480     2154
        1        1        1        1        0        0        0        0       10        0        9       31      172     1271      177     2259     2153     2089     2090
     2152     2339
        1        1        1        1        0        0        0        0       10        0       10       31      170     1271     1275     2257     2076     2089     2088
     2068     8480
! ... 11111 like lines cut
!Material Id = {8BA214DD-6044-4F4E-A016-79F6F555A9D7}
/wb,elem,end               !  done creating elements
/com,*********** Send User Defined Coordinate System(s) ***********
csys,0
toffst,273.15,  ! Temperature offset from absolute zero
/com,*********** Set Reference Temperature ***********
tref,22.
/wb,mat,start              !  starting to send materials
/com,*********** Send Materials ***********
Temperature = 'TEMP' ! Temperature
MP,DENS,1,7850,	! kg m^-3
MP,ALPX,1,1.2e-05,	! C^-1
MP,C,1,434,	! J kg^-1 C^-1
MP,KXX,1,60.5,	! W m^-1 C^-1
MP,RSVX,1,1.7e-07,	! kg m^3 A^-2 s^-3
MP,EX,1,200000000000,	! Pa
MP,NUXY,1,0.3,
MP,MURX,1,10000,
MP,UVID,1,686354d2-1739-412e-92e5-fa709c0bc458
MP,UMID,1,59002a79-71c2-428e-906b-55d7dbee100e

/wb,mat,end                !  done sending materials
!************************* Model Summary ********************
!Valve_no support_0.25\Solid1,	Structural Steel,	matid,	1
!************************* End Model Summary ********************
! get the diagonal of the bounding box. Needed later for other things
*get,_xmin,node,,mnloc,x
*get,_ymin,node,,mnloc,y
*get,_zmin,node,,mnloc,z
*get,_xmax,node,,mxloc,x
*get,_ymax,node,,mxloc,y
*get,_zmax,node,,mxloc,z
_ASMDIAG=(_xmax-_xmin)*(_xmax-_xmin)+(_ymax-_ymin)*(_ymax-_ymin)+(_zmax-_zmin)*(_zmax-_zmin)
_ASMDIAG=SQRT(_ASMDIAG)
/wb,contact,start          !  starting to send contact
/wb,contact,end            !  done creating contacts
/golist
/wb,load,start             !  starting to send loads
/com,********* Frictionless Supports X *********
CMBLOCK,_FRICSUX,NODE,      358
(8i10)
        25        40       397       413       415       439       442       443
       444       489       490       491       492       493       518       519
       521       536       537       538       539       540       541       593
       645       648       649       662       667       721       734       851
       852      1045      1166      1169      1171      1172      1173      1175
      1176      1178      1196      1198      1199      1201      1208      1209
      1211      1216      1217      1220      1221      1223      1224      1225
      1228      1229      1230      1233      1234      1235      1236      1255
      1256      1266      1267      1269      1270      1279      1306      1307
      1308      1309      1310      1324      1325      1328      1329      1331
      1332      1333      1336      1337      1338      1509      1510      1511
      1528      1529      1530      1611      1612      1614      1616      1617
      1618      1619      1659      1668      1669      1670      1941      1942
      1943      1944      1946      1948      1949      1955      2241      2243
      2244      2245      2247      2248      2249      2250      2251      2252
      2302      2304      2305      2306      2308      2309      2310      2311
      2312      2313      2314      2315      2316      2324      2325      2326
      2327      2861      2927      2929      2930      2936      2964      6174
      6175      6226      6227      6312      6313      6453      6458      6500
      6501      6924      6925      7128      7129      7580      7581      7582
! ... 25 like lines cut
cmsel,s,_FRICSUX
d,all,ux,0
nsel,all
/com,********* Frictionless Supports Y *********
CMBLOCK,_FRICSUY,NODE,      319
(8i10)
       344       358       359       367       377       381       386       395
       406       486       488       492       493       496       500       501
       502       505       506       511       513       601       828       832
       834       837       839       840       842       843       861       862
       863       867       869       890       891       892       893       894
       895       896       897       898      1200      1202      1203      1206
      1207      1209      1210      1212      1214      1215      1217      1237
      1240      1241      1244      1245      1246      1249      1250      1251
      1253      1254      1255      1257      1352      1353      1354      1355
      1356      1357      1775      1777      1778      1779      1781      1782
      1784      1786      1787      1789      1794      1795      1943      1944
      1945      1946      1964      1965      2307      2308      2309      2866
      2878      2889      2890      2912      2914      2926      6270      6274
      7556      7557      7565      7566      7567      7568      7569      7570
      7571      7734      7735      7736      7737      7738      7739      7740
      7741      7742      7985      7986      7993      7994      7995      7996
      7997      7998      7999      8000      8001      8002      8003      8004
      8005      8006      8284      8285      8475      8476      8477      8529
      8530      8531      8532      8533      8534      8535      8536      8537
      8546      8547      8548      8549      8550      8551      8552      8553
! ... 20 like lines cut
cmsel,s,_FRICSUY
d,all,uy,0
nsel,all
/com,********* Frictionless Supports Z *********
CMBLOCK,_FRICSUZ,NODE,      959
(8i10)
       290       291       292       309       310       311       320       321
       322       324       325       326       341       348       352       353
       368       373       374       377       382       385       387       391
       393       394       395       399       402       405       407       408
       411       412       418       419       420       426       445       451
       459       461       462       464       466       467       469       470
       471       478       479       507       527       529       530       531
       532       538       539       542       543       550       551       558
       573       575       598       599       603       614       621       626
       628       630       639       646       647       660       663       665
       679       684       690       695       697       699       704       708
       711       717       719       722       726       727       736       737
       755       761       767       776       783       856       857       858
       862       883       884       885       904       905       906      1107
      1109      1110      1113      1114      1116      1119      1120      1652
      1654      1658      1660      1662      1665      1666      1667      1670
      1671      1674      1680      1681      1686      1687      1693      1696
      1699      1702      1705      1707      1711      1713      1714      1715
      1716      1719      1720      1721      1724      1725      1728      1729
      1732      1733      1736      1739      1741      1744      1746      1747
! ... 100 like lines cut
cmsel,s,_FRICSUZ
d,all,uz,0
nsel,all
/com,*********** Define Pressure Using Surface Effect Elements "Pressure" ***********
et,2,154
mat,2
eblock,10,,,1175
(15i9)
     9238        2        2        2        0      771      732      756      756    11107    11103      756    11109
     9239        2        2        2        0      771      748      728      728    11108    11098      728    11106
     9240        2        2        2        0      728      732      771      771    10949    11107      771    11106
     9241        2        2        2        0      748      729      728      728    11099    10951      728    11098
     9242        2        2        2        0      748      725      729      729    11100    11095      729    11099
     9243        2        2        2        0      732      724      714      714    10948    10921      714    10947
     9244        2        2        2        0      702      728      729      729    10929    10951      729    10950
     9245        2        2        2        0      719      708      725      725    11314    11307      725    11311
     9246        2        2        2        0      725      709      729      729    11094    10952      729    11095
     9247        2        2        2        0      728      702      724      724    10929    10920      724    10930
     9248        2        2        2        0      705      714      724      724    10916    10921      724    10919
     9249        2        2        2        0      729      709      702      702    10952    10945      702    10950
     9250        2        2        2        0      709      700      702      702    10946    10942      702    10945
     9251        2        2        2        0      702      689      724      724    10902    10918      724    10920
     9252        2        2        2        0      708      690      709      709    11310    11303      709    11306
     9253        2        2        2        0      724      687      705      705    10917    10898      705    10919
     9254        2        2        2        0      700      682      702      702    10943    10909      702    10942
     9255        2        2        2        0      690      700      709      709    11302    10946      709    11303
     9256        2        2        2        0      673      705      687      687    10901    10898      687    10899
     9257        2        2        2        0      700      659      682      682    10944    10940      682    10943
! ... 1156 like lines cut
esel,s,type,,2
keyop,2,7,0                ! Use deformed area for application of load
esel,all
esel,all
/gst,on,on
fini
*get,_numnode,node,0,count
*get,_numelem,elem,0,count
*get, _MAXELEMNUM, elem, 0, NUM, MAX
*get, _MAXNODENUM, node, 0, NUM, MAX
*get, _MAXELEMTYPE, etyp, 0, NUM, MAX
*get, _MAXREALCONST, rcon, 0, NUM, MAX
/go
/wb,load,end               !  done creating loads
/com,--- Number of total nodes = %_numnode%
/com,--- Number of contact elements = 1175
/com,--- Number of spring elements = 0
/com,--- Number of bearing elements = 0
/com,--- Number of solid elements = 5565
/com,--- Number of condensed parts = 0
/com,--- Number of total elements = %_numelem%
*get,_wallbsol,active,,time,wall
/com,****************************************************************************
/com,*************************    SOLUTION       ********************************
/com,****************************************************************************
/solu
antype,0                   ! static analysis
_thickRatio=  1     ! Ratio of thick parts in the model
eqsl,pcg,1e-8,,,,,,1
cntr,print,1               ! print out contact info and also make no initial contact an error
nldiag,cont,iter           ! print out contact info each equilibrium iteration
rescontrol,,none                 ! Do not keep any restart files
/com,****************************************************
/com,******************* SOLVE FOR LS 1 OF 1 ****************
esel,s,type,,2
nsle
sf,all,pres,50000000.
nsel,all
esel,all
esel,all
/nopr
/gopr
nsub,1,1,1
time,1.
outres,erase
outres,all,none
outres,nsol,all,
outres,rsol,all
outres,eangl,all
outres,etmp,all
outres,veng,all
outres,strs,all,
outres,epel,all,
outres,eppl,all,
outres,cont,all,
! *********** WB SOLVE COMMAND ***********
! check interactive state
*get,ANSINTER_,active,,int
*if,ANSINTER_,ne,0,then
/eof
*endif
solve
/com *************** Write FE CONNECTORS ********* 
CEWRITE,file,ce,,INTE
/com,****************************************************
/com,*************** FINISHED SOLVE FOR LS 1 *************
*get,_wallasol,active,,time,wall
/nopr
*get,_numnode,node,0,count
*get,_numelem,elem,0,count
*get, _MAXELEMNUM, elem, 0, NUM, MAX
*get, _MAXNODENUM, node, 0, NUM, MAX,,,INTERNAL
*get, _MAXELEMTYPE, etyp, 0, NUM, MAX
*get, _MAXREALCONST, rcon, 0, NUM, MAX
*get,_NSOLTHREADS,active,0,ntfs
*get,_NSOLPROCESSES,active,0,npfs
/gopr
*get,_PCGITER,active,,solu,cgiter
/post1
xmlo,ENCODING,ISO-8859-1
xmlo,parm
/xml,parm,xml
fini
/gopr
*get,_walldone,active,,time,wall
_preptime=(_wallbsol-_wallstrt)*3600
_solvtime=(_wallasol-_wallbsol)*3600
_posttime=(_walldone-_wallasol)*3600
_totaltim=(_walldone-_wallstrt)*3600
*get,_dlbratio,active,0,solu,dlbr
*get,_combtime,active,0,solu,comb
*get,_ssmode,active,0,solu,ssmm
*get,_ndofs,active,0,solu,ndof
/com,--- Total number of nodes = %_numnode%
/com,--- Total number of elements = %_numelem%
/com,--- Element load balance ratio = %_dlbratio%
/com,--- Time to combine distributed files = %_combtime%
/com,--- Sparse memory mode = %_ssmode%
/com,--- Number of DOF = %_ndofs%
/wb,file,end               ! done with WB generated input
