/batch
/config,noeldb,1     ! force off writing results to database
*get,_wallstrt,active,,time,wall
! ANSYS input file written by Workbench version 2023 R2
! File used for geometry attach: E:\GitHub_repos\FEA_projects\HW6\Hw6_files\dp0\SYS\DM\SYS.scdoc
/title,Hw6--Static Structural (A5)
! ****** Begin Custom Load Command Snippet ******
/COM, ACT Extensions:
/COM,     LSDYNA, 2023.2
/COM,     5f463412-bd3e-484b-87e7-cbc0a665e474, wbex
/COM,/COM,     ANSYSMotion, 2023.2
/COM,     20180725-3f81-49eb-9f31-41364844c769, wbex
/COM,
! ****** End   Custom Load Command Snippet ******
*DIM,_wb_ProjectScratch_dir,string,248
_wb_ProjectScratch_dir(1) = 'E:\GitHub_repos\FEA_projects\HW6\_ProjectScratch\Scr43E9\'
*DIM,_wb_SolverFiles_dir,string,248
_wb_SolverFiles_dir(1) = 'E:\GitHub_repos\FEA_projects\HW6\Hw6_files\dp0\SYS\MECH\'
*DIM,_wb_userfiles_dir,string,248
_wb_userfiles_dir(1) = 'E:\GitHub_repos\FEA_projects\HW6\Hw6_files\user_files\'
/com,--- Data in consistent MKS units. See Solving Units in the help system for more information.
/units,MKS
/nopr
/wb,file,start              !  signify a WB generated input file
/prep7
! Turn off shape checking because checks already performed inside WB mesher.
! See help system for more information.
SHPP,OFF,,NOWARN
/nolist
etcon,set             ! allow ANSYS to choose best KEYOP's for 180x elements, resets any applicable keyopt to MAPDL defaults
/com,*********** Nodes for the whole assembly ***********
nblock,3,,13429
(1i9,3e20.9e3)
        1     9.078089500E-02     2.100522038E-01     9.090909091E-04
        2     9.078089500E-02     2.100522038E-01    -8.181818182E-03
        3     9.078089500E-02     2.100522038E-01    -1.727272727E-02
        4     9.078089500E-02     2.100522038E-01    -2.636363636E-02
        5     9.078089500E-02     2.100522038E-01    -3.545454545E-02
        6     9.078089500E-02     2.100522038E-01    -4.454545455E-02
        7     9.078089500E-02     2.100522038E-01    -5.363636364E-02
        8     9.078089500E-02     2.100522038E-01    -6.272727273E-02
        9     9.078089500E-02     2.100522038E-01    -7.181818182E-02
       10     9.078089500E-02     2.100522038E-01    -8.090909091E-02
       11     9.014380170E-02     2.166566257E-01     9.090909091E-04
       12     9.014380170E-02     2.166566257E-01    -8.181818182E-03
       13     9.014380170E-02     2.166566257E-01    -1.727272727E-02
       14     9.014380170E-02     2.166566257E-01    -2.636363636E-02
       15     9.014380170E-02     2.166566257E-01    -3.545454545E-02
       16     9.014380170E-02     2.166566257E-01    -4.454545455E-02
       17     9.014380170E-02     2.166566257E-01    -5.363636364E-02
       18     9.014380170E-02     2.166566257E-01    -6.272727273E-02
       19     9.014380170E-02     2.166566257E-01    -7.181818182E-02
       20     9.014380170E-02     2.166566257E-01    -8.090909091E-02
! ... 12190 like lines cut
/wb,elem,start            !  set before creation of elements
/com,*********** Elements for Body 1 "HW6_obj\Solid" ***********
et,1,187
eblock,19,solid,,5972
(19i9)
        1        1        1        1        0        0        0        0       10        0      961     3649     3080     3797     3323     8017     7950     5491     6713
     4096     6711
        1        1        1        1        0        0        0        0       10        0      962     3080     3406     3797     3323     7949     6335     7950     4096
     6883     6711
        1        1        1        1        0        0        0        0       10        0      963     3649     3070     3080     3323     8015     8021     8017     6713
     4253     4096
        1        1        1        1        0        0        0        0       10        0      964     3080     3070     3406     3323     8021     8009     7949     4096
     4253     6883
        1        1        1        1        0        0        0        0       10        0      965     3590     3571     3595     3568     5753     9743     5686     5750
     5754     4097
        1        1        1        1        0        0        0        0       10        0      966     3571     3573     3595     3568     5770     9706     9743     5754
     5780     4097
        1        1        1        1        0        0        0        0       10        0      967     3688     3573     3568     3595     5746     5780     5756     4100
     9706     4097
        1        1        1        1        0        0        0        0       10        0      968     3688     3568     3590     3595     5756     5750     5745     4100
     4097     5686
        1        1        1        1        0        0        0        0       10        0      969     3933     3688     3590     3595     5354     5745     5687     5685
     4100     5686
        1        1        1        1        0        0        0        0       10        0      970     3933     3691     3688     3595     5353     5356     5354     5685
     4099     4100
! ... 11925 like lines cut
!Material Id = {14181358-AD04-4ED1-81E6-D4A5EBB1948A}
/com,*********** Elements for Body 2 "HW6_obj\Solid" ***********
et,2,186
keyo,2,2,1          ! set full integration on SOLID186
eblock,19,solid,,110
(19i9)
        2        2        2        2        0        0        0        0       20        0        1        1       21       51       31       66       64       61       63
      195      287      327      196      418      410      409      415      197      288      389      328
        2        2        2        2        0        0        0        0       20        0        2        1       31       51       21        2       32       52       22
      196      327      287      195      202      332      292      201      193      326      388      285
        2        2        2        2        0        0        0        0       20        0        3        2       32       52       22        3       33       53       23
      202      332      292      201      207      336      296      206      199      331      391      290
        2        2        2        2        0        0        0        0       20        0        4        3       33       53       23        4       34       54       24
      207      336      296      206      212      340      300      211      204      335      393      294
        2        2        2        2        0        0        0        0       20        0        5        4       34       54       24        5       35       55       25
      212      340      300      211      217      344      304      216      209      339      395      298
        2        2        2        2        0        0        0        0       20        0        6        5       35       55       25        6       36       56       26
      217      344      304      216      222      348      308      221      214      343      397      302
        2        2        2        2        0        0        0        0       20        0        7        6       36       56       26        7       37       57       27
      222      348      308      221      227      352      312      226      219      347      399      306
        2        2        2        2        0        0        0        0       20        0        8        7       37       57       27        8       38       58       28
      227      352      312      226      232      356      316      231      224      351      401      310
        2        2        2        2        0        0        0        0       20        0        9        8       38       58       28        9       39       59       29
      232      356      316      231      237      360      320      236      229      355      403      314
        2        2        2        2        0        0        0        0       20        0       10        9       39       59       29       10       40       60       30
      237      360      320      236      241      363      323      240      234      359      405      318
! ... 201 like lines cut
!Material Id = {B172C7F3-39E3-4F61-A4BE-12950D63ED3D}
/com,*********** Elements for Body 3 "HW6_obj\Solid" ***********
et,3,186
keyo,3,2,1          ! set full integration on SOLID186
eblock,19,solid,,110
(19i9)
        3        3        3        3        0        0        0        0       20        0      111      669      689      719      699      734      732      729      731
      863      955      995      864     1086     1078     1077     1083      865      956     1057      996
        3        3        3        3        0        0        0        0       20        0      112      669      699      719      689      670      700      720      690
      864      995      955      863      870     1000      960      869      861      994     1056      953
        3        3        3        3        0        0        0        0       20        0      113      670      700      720      690      671      701      721      691
      870     1000      960      869      875     1004      964      874      867      999     1059      958
        3        3        3        3        0        0        0        0       20        0      114      671      701      721      691      672      702      722      692
      875     1004      964      874      880     1008      968      879      872     1003     1061      962
        3        3        3        3        0        0        0        0       20        0      115      672      702      722      692      673      703      723      693
      880     1008      968      879      885     1012      972      884      877     1007     1063      966
        3        3        3        3        0        0        0        0       20        0      116      673      703      723      693      674      704      724      694
      885     1012      972      884      890     1016      976      889      882     1011     1065      970
        3        3        3        3        0        0        0        0       20        0      117      674      704      724      694      675      705      725      695
      890     1016      976      889      895     1020      980      894      887     1015     1067      974
        3        3        3        3        0        0        0        0       20        0      118      675      705      725      695      676      706      726      696
      895     1020      980      894      900     1024      984      899      892     1019     1069      978
        3        3        3        3        0        0        0        0       20        0      119      676      706      726      696      677      707      727      697
      900     1024      984      899      905     1028      988      904      897     1023     1071      982
        3        3        3        3        0        0        0        0       20        0      120      677      707      727      697      678      708      728      698
      905     1028      988      904      909     1031      991      908      902     1027     1073      986
! ... 201 like lines cut
!Material Id = {D3967DAB-095C-4CF8-AED5-37F1F7C5ECC7}
/com,*********** Elements for Body 4 "HW6_obj\Solid" ***********
et,4,186
keyo,4,2,1          ! set full integration on SOLID186
eblock,19,solid,,110
(19i9)
        4        4        4        4        0        0        0        0       20        0      221     1337     1357     1377     1367     1402     1400     1398     1399
     1531     1622     1663     1532     1754     1749     1748     1751     1533     1624     1704     1664
        4        4        4        4        0        0        0        0       20        0      222     1337     1367     1377     1357     1338     1368     1378     1358
     1532     1663     1622     1531     1538     1668     1627     1537     1529     1662     1703     1621
        4        4        4        4        0        0        0        0       20        0      223     1338     1368     1378     1358     1339     1369     1379     1359
     1538     1668     1627     1537     1543     1672     1631     1542     1535     1667     1706     1626
        4        4        4        4        0        0        0        0       20        0      224     1339     1369     1379     1359     1340     1370     1380     1360
     1543     1672     1631     1542     1548     1676     1635     1547     1540     1671     1708     1630
        4        4        4        4        0        0        0        0       20        0      225     1340     1370     1380     1360     1341     1371     1381     1361
     1548     1676     1635     1547     1553     1680     1639     1552     1545     1675     1710     1634
        4        4        4        4        0        0        0        0       20        0      226     1341     1371     1381     1361     1342     1372     1382     1362
     1553     1680     1639     1552     1558     1684     1643     1557     1550     1679     1712     1638
        4        4        4        4        0        0        0        0       20        0      227     1342     1372     1382     1362     1343     1373     1383     1363
     1558     1684     1643     1557     1563     1688     1647     1562     1555     1683     1714     1642
        4        4        4        4        0        0        0        0       20        0      228     1343     1373     1383     1363     1344     1374     1384     1364
     1563     1688     1647     1562     1568     1692     1651     1567     1560     1687     1716     1646
        4        4        4        4        0        0        0        0       20        0      229     1344     1374     1384     1364     1345     1375     1385     1365
     1568     1692     1651     1567     1573     1696     1655     1572     1565     1691     1718     1650
        4        4        4        4        0        0        0        0       20        0      230     1345     1375     1385     1365     1346     1376     1386     1366
     1573     1696     1655     1572     1577     1699     1658     1576     1570     1695     1720     1654
! ... 201 like lines cut
!Material Id = {0DF3C6C9-D90D-4FBC-BF8A-17533469E8C6}
/com,*********** Elements for Body 5 "HW6_obj\Solid" ***********
et,5,186
keyo,5,2,1          ! set full integration on SOLID186
eblock,19,solid,,110
(19i9)
        5        5        5        5        0        0        0        0       20        0      331     2005     2025     2045     2035     2070     2068     2066     2067
     2199     2290     2331     2200     2422     2417     2416     2419     2201     2292     2372     2332
        5        5        5        5        0        0        0        0       20        0      332     2005     2035     2045     2025     2006     2036     2046     2026
     2200     2331     2290     2199     2206     2336     2295     2205     2197     2330     2371     2289
        5        5        5        5        0        0        0        0       20        0      333     2006     2036     2046     2026     2007     2037     2047     2027
     2206     2336     2295     2205     2211     2340     2299     2210     2203     2335     2374     2294
        5        5        5        5        0        0        0        0       20        0      334     2007     2037     2047     2027     2008     2038     2048     2028
     2211     2340     2299     2210     2216     2344     2303     2215     2208     2339     2376     2298
        5        5        5        5        0        0        0        0       20        0      335     2008     2038     2048     2028     2009     2039     2049     2029
     2216     2344     2303     2215     2221     2348     2307     2220     2213     2343     2378     2302
        5        5        5        5        0        0        0        0       20        0      336     2009     2039     2049     2029     2010     2040     2050     2030
     2221     2348     2307     2220     2226     2352     2311     2225     2218     2347     2380     2306
        5        5        5        5        0        0        0        0       20        0      337     2010     2040     2050     2030     2011     2041     2051     2031
     2226     2352     2311     2225     2231     2356     2315     2230     2223     2351     2382     2310
        5        5        5        5        0        0        0        0       20        0      338     2011     2041     2051     2031     2012     2042     2052     2032
     2231     2356     2315     2230     2236     2360     2319     2235     2228     2355     2384     2314
        5        5        5        5        0        0        0        0       20        0      339     2012     2042     2052     2032     2013     2043     2053     2033
     2236     2360     2319     2235     2241     2364     2323     2240     2233     2359     2386     2318
        5        5        5        5        0        0        0        0       20        0      340     2013     2043     2053     2033     2014     2044     2054     2034
     2241     2364     2323     2240     2245     2367     2326     2244     2238     2363     2388     2322
! ... 201 like lines cut
!Material Id = {5B38C2F1-E1B1-438F-BF02-6A8B6047594C}
/wb,elem,end               !  done creating elements
/com,*********** Send User Defined Coordinate System(s) ***********
csys,0
toffst,273.15,  ! Temperature offset from absolute zero
/com,*********** Set Reference Temperature ***********
tref,22.
/wb,mat,start              !  starting to send materials
/com,*********** Send Materials ***********

TB,PLAS,1,1,,BKIN
TBDATA,1,220000000,9000000000
MP,EX,1,67000000000,	! Pa
MP,NUXY,1,0.33,
MP,UVID,1,378b5585-60d8-4f22-bc01-6cb5acff89ad

MP,EX,2,205000000000,	! Pa
MP,NUXY,2,0.29,
MP,UVID,2,f39a4b08-5a8e-412b-9f8a-0f1ca1fca1b9

MP,EX,3,205000000000,	! Pa
MP,NUXY,3,0.29,
MP,UVID,3,f39a4b08-5a8e-412b-9f8a-0f1ca1fca1b9

MP,EX,4,205000000000,	! Pa
MP,NUXY,4,0.29,
MP,UVID,4,f39a4b08-5a8e-412b-9f8a-0f1ca1fca1b9

MP,EX,5,205000000000,	! Pa
MP,NUXY,5,0.29,
MP,UVID,5,f39a4b08-5a8e-412b-9f8a-0f1ca1fca1b9

/wb,mat,end                !  done sending materials
!************************* Model Summary ********************
!HW6_obj\Solid,	new soft alloy,	matid,	1
!HW6_obj\Solid,	machine steel,	matid,	2
!HW6_obj\Solid,	machine steel,	matid,	3
!HW6_obj\Solid,	machine steel,	matid,	4
!HW6_obj\Solid,	machine steel,	matid,	5
!************************* End Model Summary ********************
! get the diagonal of the bounding box. Needed later for other things
*get,_xmin,node,,mnloc,x
*get,_ymin,node,,mnloc,y
*get,_zmin,node,,mnloc,z
*get,_xmax,node,,mxloc,x
*get,_ymax,node,,mxloc,y
*get,_zmax,node,,mxloc,z
_ASMDIAG=(_xmax-_xmin)*(_xmax-_xmin)+(_ymax-_ymin)*(_ymax-_ymin)+(_zmax-_zmin)*(_zmax-_zmin)
_ASMDIAG=SQRT(_ASMDIAG)
/wb,contact,start          !  starting to send contact
/com,*********** Create Contact "Frictional - HW6_obj\Solid To HW6_obj\Solid" ***********
/com,            Real Constant Set For Above Contact Is 7 & 6 
*set,tid,7
*set,cid,6
r,tid
r,cid
et,tid,170
et,cid,174
eblock,10,,,66
(15i9)
     8373        7        7        7        0      117      138      192      116      536      577      534      533
     8374        7        7        7        0      118      143      138      117      538      576      536      535
     8375        7        7        7        0      119      148      143      118      540      590      538      537
     8376        7        7        7        0      120      153      148      119      542      599      540      539
     8377        7        7        7        0      121      158      153      120      544      608      542      541
     8378        7        7        7        0      122      163      158      121      546      617      544      543
     8379        7        7        7        0      123      168      163      122      548      626      546      545
     8380        7        7        7        0      124      173      168      123      550      635      548      547
     8381        7        7        7        0      125      178      173      124      552      644      550      549
     8382        7        7        7        0      126      183      178      125      553      653      552      551
     8383        7        7        7        0       78       73      183      126      440      441      553      451
     8384        7        7        7        0      138      139      191      192      575      580      668      577
     8385        7        7        7        0      143      144      139      138      589      579      575      576
     8386        7        7        7        0      148      149      144      143      598      592      589      590
     8387        7        7        7        0      153      154      149      148      607      601      598      599
     8388        7        7        7        0      158      159      154      153      616      610      607      608
     8389        7        7        7        0      163      164      159      158      625      619      616      617
     8390        7        7        7        0      168      169      164      163      634      628      625      626
     8391        7        7        7        0      173      174      169      168      643      637      634      635
     8392        7        7        7        0      178      179      174      173      652      646      643      644
! ... 47 like lines cut
eblock,10,,,66
(15i9)
     8439        6        6        6        0      117      138      192      116      536      577      534      533
     8440        6        6        6        0      118      143      138      117      538      576      536      535
     8441        6        6        6        0      119      148      143      118      540      590      538      537
     8442        6        6        6        0      120      153      148      119      542      599      540      539
     8443        6        6        6        0      121      158      153      120      544      608      542      541
     8444        6        6        6        0      122      163      158      121      546      617      544      543
     8445        6        6        6        0      123      168      163      122      548      626      546      545
     8446        6        6        6        0      124      173      168      123      550      635      548      547
     8447        6        6        6        0      125      178      173      124      552      644      550      549
     8448        6        6        6        0      126      183      178      125      553      653      552      551
     8449        6        6        6        0       78       73      183      126      440      441      553      451
     8450        6        6        6        0      138      139      191      192      575      580      668      577
     8451        6        6        6        0      143      144      139      138      589      579      575      576
     8452        6        6        6        0      148      149      144      143      598      592      589      590
     8453        6        6        6        0      153      154      149      148      607      601      598      599
     8454        6        6        6        0      158      159      154      153      616      610      607      608
     8455        6        6        6        0      163      164      159      158      625      619      616      617
     8456        6        6        6        0      168      169      164      163      634      628      625      626
     8457        6        6        6        0      173      174      169      168      643      637      634      635
     8458        6        6        6        0      178      179      174      173      652      646      643      644
! ... 47 like lines cut
eblock,10,,,156
(15i9)
     8505        6        7        6        0     4018     3861     3853     3853    11817    11062     3853    11816
     8506        6        7        6        0     3973     3854     3951     3951    11619    11517     3951    11621
     8507        6        7        6        0     3951     3854     3950     3950    11517    11511     3950    11519
     8508        6        7        6        0     3950     3854     3859     3859    11511    11043     3859    11512
     8509        6        7        6        0     4016     3853     4015     4015    11807    11803     4015    11810
     8510        6        7        6        0     3968     3967     3850     3850    11599    11593     3850    11597
     8511        6        7        6        0     3962     3852     3861     3861    11565    11061     3861    11566
     8512        6        7        6        0     3962     3961     3852     3852    11568    11560     3852    11565
     8513        6        7        6        0     3961     3960     3852     3852    11562    11556     3852    11560
     8514        6        7        6        0     4014     3856     4013     4013    11798    11793     4013    11801
     8515        6        7        6        0     4013     3856     3855     3855    11793    11026     3855    11792
     8516        6        7        6        0     3946     3945     3858     3858    11499    11493     3858    11496
     8517        6        7        6        0     3945     3855     3858     3858    11492    11036     3858    11493
     8518        6        7        6        0     3855     4012     4013     4013    11788    11796     4013    11792
     8519        6        7        6        0     3944     3855     3945     3945    11489    11492     3945    11495
     8520        6        7        6        0     4012     3855     3944     3944    11788    11489     3944    11790
     8521        6        7        6        0     3863     4023     4024     4024    11845    11850     4024    11848
     8522        6        7        6        0     3850     3847     3968     3968    11008    11596     3968    11597
     8523        6        7        6        0     4012     3944     4030     4030    11790    11876     4030    11878
     8524        6        7        6        0     3968     3847     3969     3969    11596    11600     3969    11603
! ... 137 like lines cut
eblock,10,,,156
(15i9)
     8661        7        6        7        0     4018     3861     3853     3853    11817    11062     3853    11816
     8662        7        6        7        0     3973     3854     3951     3951    11619    11517     3951    11621
     8663        7        6        7        0     3951     3854     3950     3950    11517    11511     3950    11519
     8664        7        6        7        0     3950     3854     3859     3859    11511    11043     3859    11512
     8665        7        6        7        0     4016     3853     4015     4015    11807    11803     4015    11810
     8666        7        6        7        0     3968     3967     3850     3850    11599    11593     3850    11597
     8667        7        6        7        0     3962     3852     3861     3861    11565    11061     3861    11566
     8668        7        6        7        0     3962     3961     3852     3852    11568    11560     3852    11565
     8669        7        6        7        0     3961     3960     3852     3852    11562    11556     3852    11560
     8670        7        6        7        0     4014     3856     4013     4013    11798    11793     4013    11801
     8671        7        6        7        0     4013     3856     3855     3855    11793    11026     3855    11792
     8672        7        6        7        0     3946     3945     3858     3858    11499    11493     3858    11496
     8673        7        6        7        0     3945     3855     3858     3858    11492    11036     3858    11493
     8674        7        6        7        0     3855     4012     4013     4013    11788    11796     4013    11792
     8675        7        6        7        0     3944     3855     3945     3945    11489    11492     3945    11495
     8676        7        6        7        0     4012     3855     3944     3944    11788    11489     3944    11790
     8677        7        6        7        0     3863     4023     4024     4024    11845    11850     4024    11848
     8678        7        6        7        0     3850     3847     3968     3968    11008    11596     3968    11597
     8679        7        6        7        0     4012     3944     4030     4030    11790    11876     4030    11878
     8680        7        6        7        0     3968     3847     3969     3969    11596    11600     3969    11603
! ... 137 like lines cut
keyo,cid,8,2               ! auto create asymmetric contact (from Program Controlled setting)
keyo,cid,10,0              ! adjust contact stiffness each NR iteration (from Program Controlled setting)
keyo,cid,12,0              ! standard contact
mp,mu,cid,0.15      ! unitless
keyo,cid,2,0               ! augmented Lagrange (from Program Controlled setting)
keyo,cid,4,0               ! on Gauss point (from Program Controlled setting)
keyo,cid,9,0               ! use real geometry with stepped effects
keyo,cid,7,0               ! No Prediction
rmod,tid,3,1.       ! FKN
rmod,tid,5,0.       ! ICONT
rmod,tid,6,0.       ! PINB
rmod,tid,10,0.      ! CNOF
rmod,tid,12,0.      ! FKT
rmod,tid,36,69      ! WB DSID
rmod,cid,3,1.       ! FKN
rmod,cid,5,0.       ! ICONT
rmod,cid,6,0.       ! PINB
rmod,cid,10,0.      ! CNOF
rmod,cid,12,0.      ! FKT
rmod,cid,36,69      ! WB DSID
/com,*********** Create Contact "Frictional - HW6_obj\Solid To HW6_obj\Solid" ***********
/com,            Real Constant Set For Above Contact Is 9 & 8 
*set,tid,9
*set,cid,8
r,tid
r,cid
et,tid,170
et,cid,174
eblock,10,,,66
(15i9)
     8817        9        9        9        0     1473     1474     1409     1414     1910     1777     1776     1787
     8818        9        9        9        0     1472     1479     1474     1473     1909     1912     1910     1908
     8819        9        9        9        0     1471     1484     1479     1472     1907     1921     1909     1906
     8820        9        9        9        0     1470     1489     1484     1471     1905     1930     1907     1904
     8821        9        9        9        0     1469     1494     1489     1470     1903     1939     1905     1902
     8822        9        9        9        0     1468     1499     1494     1469     1901     1948     1903     1900
     8823        9        9        9        0     1467     1504     1499     1468     1899     1957     1901     1898
     8824        9        9        9        0     1466     1509     1504     1467     1897     1966     1899     1896
     8825        9        9        9        0     1465     1514     1509     1466     1895     1975     1897     1894
     8826        9        9        9        0     1464     1519     1514     1465     1893     1984     1895     1892
     8827        9        9        9        0     1463     1528     1519     1464     1891     1993     1893     1890
     8828        9        9        9        0     1474     1475     1410     1409     1911     1779     1775     1777
     8829        9        9        9        0     1479     1480     1475     1474     1920     1914     1911     1912
     8830        9        9        9        0     1484     1485     1480     1479     1929     1923     1920     1921
     8831        9        9        9        0     1489     1490     1485     1484     1938     1932     1929     1930
     8832        9        9        9        0     1494     1495     1490     1489     1947     1941     1938     1939
     8833        9        9        9        0     1499     1500     1495     1494     1956     1950     1947     1948
     8834        9        9        9        0     1504     1505     1500     1499     1965     1959     1956     1957
     8835        9        9        9        0     1509     1510     1505     1504     1974     1968     1965     1966
     8836        9        9        9        0     1514     1515     1510     1509     1983     1977     1974     1975
! ... 47 like lines cut
eblock,10,,,66
(15i9)
     8883        8        8        8        0     1473     1474     1409     1414     1910     1777     1776     1787
     8884        8        8        8        0     1472     1479     1474     1473     1909     1912     1910     1908
     8885        8        8        8        0     1471     1484     1479     1472     1907     1921     1909     1906
     8886        8        8        8        0     1470     1489     1484     1471     1905     1930     1907     1904
     8887        8        8        8        0     1469     1494     1489     1470     1903     1939     1905     1902
     8888        8        8        8        0     1468     1499     1494     1469     1901     1948     1903     1900
     8889        8        8        8        0     1467     1504     1499     1468     1899     1957     1901     1898
     8890        8        8        8        0     1466     1509     1504     1467     1897     1966     1899     1896
     8891        8        8        8        0     1465     1514     1509     1466     1895     1975     1897     1894
     8892        8        8        8        0     1464     1519     1514     1465     1893     1984     1895     1892
     8893        8        8        8        0     1463     1528     1519     1464     1891     1993     1893     1890
     8894        8        8        8        0     1474     1475     1410     1409     1911     1779     1775     1777
     8895        8        8        8        0     1479     1480     1475     1474     1920     1914     1911     1912
     8896        8        8        8        0     1484     1485     1480     1479     1929     1923     1920     1921
     8897        8        8        8        0     1489     1490     1485     1484     1938     1932     1929     1930
     8898        8        8        8        0     1494     1495     1490     1489     1947     1941     1938     1939
     8899        8        8        8        0     1499     1500     1495     1494     1956     1950     1947     1948
     8900        8        8        8        0     1504     1505     1500     1499     1965     1959     1956     1957
     8901        8        8        8        0     1509     1510     1505     1504     1974     1968     1965     1966
     8902        8        8        8        0     1514     1515     1510     1509     1983     1977     1974     1975
! ... 47 like lines cut
eblock,10,,,156
(15i9)
     8949        8        9        8        0     4018     3861     3853     3853    11817    11062     3853    11816
     8950        8        9        8        0     3973     3854     3951     3951    11619    11517     3951    11621
     8951        8        9        8        0     3951     3854     3950     3950    11517    11511     3950    11519
     8952        8        9        8        0     3950     3854     3859     3859    11511    11043     3859    11512
     8953        8        9        8        0     4016     3853     4015     4015    11807    11803     4015    11810
     8954        8        9        8        0     3968     3967     3850     3850    11599    11593     3850    11597
     8955        8        9        8        0     3962     3852     3861     3861    11565    11061     3861    11566
     8956        8        9        8        0     3962     3961     3852     3852    11568    11560     3852    11565
     8957        8        9        8        0     3961     3960     3852     3852    11562    11556     3852    11560
     8958        8        9        8        0     4014     3856     4013     4013    11798    11793     4013    11801
     8959        8        9        8        0     4013     3856     3855     3855    11793    11026     3855    11792
     8960        8        9        8        0     3946     3945     3858     3858    11499    11493     3858    11496
     8961        8        9        8        0     3945     3855     3858     3858    11492    11036     3858    11493
     8962        8        9        8        0     3855     4012     4013     4013    11788    11796     4013    11792
     8963        8        9        8        0     3944     3855     3945     3945    11489    11492     3945    11495
     8964        8        9        8        0     4012     3855     3944     3944    11788    11489     3944    11790
     8965        8        9        8        0     3863     4023     4024     4024    11845    11850     4024    11848
     8966        8        9        8        0     3850     3847     3968     3968    11008    11596     3968    11597
     8967        8        9        8        0     4012     3944     4030     4030    11790    11876     4030    11878
     8968        8        9        8        0     3968     3847     3969     3969    11596    11600     3969    11603
! ... 137 like lines cut
eblock,10,,,156
(15i9)
     9105        9        8        9        0     4018     3861     3853     3853    11817    11062     3853    11816
     9106        9        8        9        0     3973     3854     3951     3951    11619    11517     3951    11621
     9107        9        8        9        0     3951     3854     3950     3950    11517    11511     3950    11519
     9108        9        8        9        0     3950     3854     3859     3859    11511    11043     3859    11512
     9109        9        8        9        0     4016     3853     4015     4015    11807    11803     4015    11810
     9110        9        8        9        0     3968     3967     3850     3850    11599    11593     3850    11597
     9111        9        8        9        0     3962     3852     3861     3861    11565    11061     3861    11566
     9112        9        8        9        0     3962     3961     3852     3852    11568    11560     3852    11565
     9113        9        8        9        0     3961     3960     3852     3852    11562    11556     3852    11560
     9114        9        8        9        0     4014     3856     4013     4013    11798    11793     4013    11801
     9115        9        8        9        0     4013     3856     3855     3855    11793    11026     3855    11792
     9116        9        8        9        0     3946     3945     3858     3858    11499    11493     3858    11496
     9117        9        8        9        0     3945     3855     3858     3858    11492    11036     3858    11493
     9118        9        8        9        0     3855     4012     4013     4013    11788    11796     4013    11792
     9119        9        8        9        0     3944     3855     3945     3945    11489    11492     3945    11495
     9120        9        8        9        0     4012     3855     3944     3944    11788    11489     3944    11790
     9121        9        8        9        0     3863     4023     4024     4024    11845    11850     4024    11848
     9122        9        8        9        0     3850     3847     3968     3968    11008    11596     3968    11597
     9123        9        8        9        0     4012     3944     4030     4030    11790    11876     4030    11878
     9124        9        8        9        0     3968     3847     3969     3969    11596    11600     3969    11603
! ... 137 like lines cut
keyo,cid,8,2               ! auto create asymmetric contact (from Program Controlled setting)
keyo,cid,10,0              ! adjust contact stiffness each NR iteration (from Program Controlled setting)
keyo,cid,12,0              ! standard contact
mp,mu,cid,0.15      ! unitless
keyo,cid,2,0               ! augmented Lagrange (from Program Controlled setting)
keyo,cid,4,0               ! on Gauss point (from Program Controlled setting)
keyo,cid,9,0               ! use real geometry with stepped effects
keyo,cid,7,0               ! No Prediction
rmod,tid,3,1.       ! FKN
rmod,tid,5,0.       ! ICONT
rmod,tid,6,0.       ! PINB
rmod,tid,10,0.      ! CNOF
rmod,tid,12,0.      ! FKT
rmod,tid,36,72      ! WB DSID
rmod,cid,3,1.       ! FKN
rmod,cid,5,0.       ! ICONT
rmod,cid,6,0.       ! PINB
rmod,cid,10,0.      ! CNOF
rmod,cid,12,0.      ! FKT
rmod,cid,36,72      ! WB DSID
/com,*********** Create Contact "Frictional - HW6_obj\Solid To HW6_obj\Solid" ***********
/com,            Real Constant Set For Above Contact Is 11 & 10 
*set,tid,11
*set,cid,10
r,tid
r,cid
et,tid,170
et,cid,174
eblock,10,,,66
(15i9)
     9261       11       11       11        0      785      806      860      784     1204     1245     1202     1201
     9262       11       11       11        0      786      811      806      785     1206     1244     1204     1203
     9263       11       11       11        0      787      816      811      786     1208     1258     1206     1205
     9264       11       11       11        0      788      821      816      787     1210     1267     1208     1207
     9265       11       11       11        0      789      826      821      788     1212     1276     1210     1209
     9266       11       11       11        0      790      831      826      789     1214     1285     1212     1211
     9267       11       11       11        0      791      836      831      790     1216     1294     1214     1213
     9268       11       11       11        0      792      841      836      791     1218     1303     1216     1215
     9269       11       11       11        0      793      846      841      792     1220     1312     1218     1217
     9270       11       11       11        0      794      851      846      793     1221     1321     1220     1219
     9271       11       11       11        0      746      741      851      794     1108     1109     1221     1119
     9272       11       11       11        0      806      807      859      860     1243     1248     1336     1245
     9273       11       11       11        0      811      812      807      806     1257     1247     1243     1244
     9274       11       11       11        0      816      817      812      811     1266     1260     1257     1258
     9275       11       11       11        0      821      822      817      816     1275     1269     1266     1267
     9276       11       11       11        0      826      827      822      821     1284     1278     1275     1276
     9277       11       11       11        0      831      832      827      826     1293     1287     1284     1285
     9278       11       11       11        0      836      837      832      831     1302     1296     1293     1294
     9279       11       11       11        0      841      842      837      836     1311     1305     1302     1303
     9280       11       11       11        0      846      847      842      841     1320     1314     1311     1312
! ... 47 like lines cut
eblock,10,,,66
(15i9)
     9327       10       10       10        0      785      806      860      784     1204     1245     1202     1201
     9328       10       10       10        0      786      811      806      785     1206     1244     1204     1203
     9329       10       10       10        0      787      816      811      786     1208     1258     1206     1205
     9330       10       10       10        0      788      821      816      787     1210     1267     1208     1207
     9331       10       10       10        0      789      826      821      788     1212     1276     1210     1209
     9332       10       10       10        0      790      831      826      789     1214     1285     1212     1211
     9333       10       10       10        0      791      836      831      790     1216     1294     1214     1213
     9334       10       10       10        0      792      841      836      791     1218     1303     1216     1215
     9335       10       10       10        0      793      846      841      792     1220     1312     1218     1217
     9336       10       10       10        0      794      851      846      793     1221     1321     1220     1219
     9337       10       10       10        0      746      741      851      794     1108     1109     1221     1119
     9338       10       10       10        0      806      807      859      860     1243     1248     1336     1245
     9339       10       10       10        0      811      812      807      806     1257     1247     1243     1244
     9340       10       10       10        0      816      817      812      811     1266     1260     1257     1258
     9341       10       10       10        0      821      822      817      816     1275     1269     1266     1267
     9342       10       10       10        0      826      827      822      821     1284     1278     1275     1276
     9343       10       10       10        0      831      832      827      826     1293     1287     1284     1285
     9344       10       10       10        0      836      837      832      831     1302     1296     1293     1294
     9345       10       10       10        0      841      842      837      836     1311     1305     1302     1303
     9346       10       10       10        0      846      847      842      841     1320     1314     1311     1312
! ... 47 like lines cut
eblock,10,,,56
(15i9)
     9393       10       11       10        0     3981     3833     3980     3980    11655    11651     3980    11659
     9394       10       11       10        0     3981     3838     3833     3833    11656    10946     3833    11655
     9395       10       11       10        0     3833     3838     3842     3842    10946    10965     3842    10963
     9396       10       11       10        0     3990     3989     3833     3833    11699    11690     3833    11695
     9397       10       11       10        0     3833     3842     3990     3990    10963    11696     3990    11695
     9398       10       11       10        0     3832     3840     3987     3987    10953    11682     3987    11681
     9399       10       11       10        0     3840     3986     3987     3987    11677    11684     3987    11682
     9400       10       11       10        0     3986     3840     3985     3985    11677    11674     3985    11680
     9401       10       11       10        0     3985     3840     3839     3839    11674    10954     3839    11673
     9402       10       11       10        0     3832     3987     3988     3988    11681    11688     3988    11686
     9403       10       11       10        0     3839     3984     3985     3985    11669    11676     3985    11673
     9404       10       11       10        0     4059     3988     4067     4067    12009    12042     4067    12043
     9405       10       11       10        0     4005     4004     3834     3834    11762    11755     3834    11760
     9406       10       11       10        0     4056     4006     3834     3834    11993    11763     3834    11990
     9407       10       11       10        0     3836     3838     3983     3983    10947    11664     3983    11663
     9408       10       11       10        0     4002     3841     4003     4003    11747    11751     4003    11753
     9409       10       11       10        0     4006     4005     3834     3834    11765    11760     3834    11763
     9410       10       11       10        0     3983     3838     3982     3982    11664    11660     3982    11666
     9411       10       11       10        0     4063     4006     4056     4056    12024    11993     4056    12025
     9412       10       11       10        0     4000     3835     4001     4001    11739    11742     4001    11744
! ... 37 like lines cut
eblock,10,,,56
(15i9)
     9449       11       10       11        0     3981     3833     3980     3980    11655    11651     3980    11659
     9450       11       10       11        0     3981     3838     3833     3833    11656    10946     3833    11655
     9451       11       10       11        0     3833     3838     3842     3842    10946    10965     3842    10963
     9452       11       10       11        0     3990     3989     3833     3833    11699    11690     3833    11695
     9453       11       10       11        0     3833     3842     3990     3990    10963    11696     3990    11695
     9454       11       10       11        0     3832     3840     3987     3987    10953    11682     3987    11681
     9455       11       10       11        0     3840     3986     3987     3987    11677    11684     3987    11682
     9456       11       10       11        0     3986     3840     3985     3985    11677    11674     3985    11680
     9457       11       10       11        0     3985     3840     3839     3839    11674    10954     3839    11673
     9458       11       10       11        0     3832     3987     3988     3988    11681    11688     3988    11686
     9459       11       10       11        0     3839     3984     3985     3985    11669    11676     3985    11673
     9460       11       10       11        0     4059     3988     4067     4067    12009    12042     4067    12043
     9461       11       10       11        0     4005     4004     3834     3834    11762    11755     3834    11760
     9462       11       10       11        0     4056     4006     3834     3834    11993    11763     3834    11990
     9463       11       10       11        0     3836     3838     3983     3983    10947    11664     3983    11663
     9464       11       10       11        0     4002     3841     4003     4003    11747    11751     4003    11753
     9465       11       10       11        0     4006     4005     3834     3834    11765    11760     3834    11763
     9466       11       10       11        0     3983     3838     3982     3982    11664    11660     3982    11666
     9467       11       10       11        0     4063     4006     4056     4056    12024    11993     4056    12025
     9468       11       10       11        0     4000     3835     4001     4001    11739    11742     4001    11744
! ... 37 like lines cut
keyo,cid,8,2               ! auto create asymmetric contact (from Program Controlled setting)
keyo,cid,10,0              ! adjust contact stiffness each NR iteration (from Program Controlled setting)
keyo,cid,12,0              ! standard contact
mp,mu,cid,0.15      ! unitless
keyo,cid,2,0               ! augmented Lagrange (from Program Controlled setting)
keyo,cid,4,0               ! on Gauss point (from Program Controlled setting)
keyo,cid,9,0               ! use real geometry with stepped effects
keyo,cid,7,0               ! No Prediction
rmod,tid,3,1.       ! FKN
rmod,tid,5,0.       ! ICONT
rmod,tid,6,0.       ! PINB
rmod,tid,10,0.      ! CNOF
rmod,tid,12,0.      ! FKT
rmod,tid,36,75      ! WB DSID
rmod,cid,3,1.       ! FKN
rmod,cid,5,0.       ! ICONT
rmod,cid,6,0.       ! PINB
rmod,cid,10,0.      ! CNOF
rmod,cid,12,0.      ! FKT
rmod,cid,36,75      ! WB DSID
/com,*********** Create Contact "Frictional - HW6_obj\Solid To HW6_obj\Solid" ***********
/com,            Real Constant Set For Above Contact Is 13 & 12 
*set,tid,13
*set,cid,12
r,tid
r,cid
et,tid,170
et,cid,174
eblock,10,,,66
(15i9)
     9505       13       13       13        0     2131     2142     2077     2082     2559     2445     2444     2455
     9506       13       13       13        0     2132     2147     2142     2131     2561     2580     2559     2558
     9507       13       13       13        0     2133     2152     2147     2132     2563     2589     2561     2560
     9508       13       13       13        0     2134     2157     2152     2133     2565     2598     2563     2562
     9509       13       13       13        0     2135     2162     2157     2134     2567     2607     2565     2564
     9510       13       13       13        0     2136     2167     2162     2135     2569     2616     2567     2566
     9511       13       13       13        0     2137     2172     2167     2136     2571     2625     2569     2568
     9512       13       13       13        0     2138     2177     2172     2137     2573     2634     2571     2570
     9513       13       13       13        0     2139     2182     2177     2138     2575     2643     2573     2572
     9514       13       13       13        0     2141     2187     2182     2139     2578     2652     2575     2574
     9515       13       13       13        0     2140     2196     2187     2141     2577     2661     2578     2576
     9516       13       13       13        0     2142     2143     2078     2077     2579     2447     2443     2445
     9517       13       13       13        0     2147     2148     2143     2142     2588     2582     2579     2580
     9518       13       13       13        0     2152     2153     2148     2147     2597     2591     2588     2589
     9519       13       13       13        0     2157     2158     2153     2152     2606     2600     2597     2598
     9520       13       13       13        0     2162     2163     2158     2157     2615     2609     2606     2607
     9521       13       13       13        0     2167     2168     2163     2162     2624     2618     2615     2616
     9522       13       13       13        0     2172     2173     2168     2167     2633     2627     2624     2625
     9523       13       13       13        0     2177     2178     2173     2172     2642     2636     2633     2634
     9524       13       13       13        0     2182     2183     2178     2177     2651     2645     2642     2643
! ... 47 like lines cut
eblock,10,,,66
(15i9)
     9571       12       12       12        0     2131     2142     2077     2082     2559     2445     2444     2455
     9572       12       12       12        0     2132     2147     2142     2131     2561     2580     2559     2558
     9573       12       12       12        0     2133     2152     2147     2132     2563     2589     2561     2560
     9574       12       12       12        0     2134     2157     2152     2133     2565     2598     2563     2562
     9575       12       12       12        0     2135     2162     2157     2134     2567     2607     2565     2564
     9576       12       12       12        0     2136     2167     2162     2135     2569     2616     2567     2566
     9577       12       12       12        0     2137     2172     2167     2136     2571     2625     2569     2568
     9578       12       12       12        0     2138     2177     2172     2137     2573     2634     2571     2570
     9579       12       12       12        0     2139     2182     2177     2138     2575     2643     2573     2572
     9580       12       12       12        0     2141     2187     2182     2139     2578     2652     2575     2574
     9581       12       12       12        0     2140     2196     2187     2141     2577     2661     2578     2576
     9582       12       12       12        0     2142     2143     2078     2077     2579     2447     2443     2445
     9583       12       12       12        0     2147     2148     2143     2142     2588     2582     2579     2580
     9584       12       12       12        0     2152     2153     2148     2147     2597     2591     2588     2589
     9585       12       12       12        0     2157     2158     2153     2152     2606     2600     2597     2598
     9586       12       12       12        0     2162     2163     2158     2157     2615     2609     2606     2607
     9587       12       12       12        0     2167     2168     2163     2162     2624     2618     2615     2616
     9588       12       12       12        0     2172     2173     2168     2167     2633     2627     2624     2625
     9589       12       12       12        0     2177     2178     2173     2172     2642     2636     2633     2634
     9590       12       12       12        0     2182     2183     2178     2177     2651     2645     2642     2643
! ... 47 like lines cut
eblock,10,,,56
(15i9)
     9637       12       13       12        0     3831     3823     3825     3825    10922    10887     3825    10923
     9638       12       13       12        0     3831     3827     3823     3823    10925    10895     3823    10922
     9639       12       13       12        0     3827     3821     3823     3823    10894    10877     3823    10895
     9640       12       13       12        0     4036     3821     3827     3827    11897    10894     3827    11898
     9641       12       13       12        0     4042     3829     3818     3818    11927    10906     3818    11926
     9642       12       13       12        0     4034     3821     4035     4035    11889    11893     4035    11895
     9643       12       13       12        0     3822     3824     4049     4049    10882    11955     4049    11954
     9644       12       13       12        0     4047     3824     3819     3819    11947    10881     3819    11946
     9645       12       13       12        0     3824     4047     4048     4048    11947    11953     4048    11950
     9646       12       13       12        0     4049     3824     4048     4048    11955    11950     4048    11957
     9647       12       13       12        0     4047     3819     4046     4046    11946    11944     4046    11949
     9648       12       13       12        0     4046     3819     4086     4086    11944    12163     4086    12164
     9649       12       13       12        0     4089     4032     4090     4090    12180    12183     4090    12185
     9650       12       13       12        0     4095     4046     4086     4086    12207    12164     4086    12208
     9651       12       13       12        0     4050     3822     4049     4049    11959    11954     4049    11963
     9652       12       13       12        0     4038     4037     3827     3827    11909    11902     3827    11907
     9653       12       13       12        0     4052     3825     4051     4051    11968    11964     4051    11971
     9654       12       13       12        0     4088     3828     4089     4089    12175    12179     4089    12182
     9655       12       13       12        0     3828     4032     4089     4089    11883    12180     4089    12179
     9656       12       13       12        0     4033     4032     3828     3828    11887    11883     3828    11885
! ... 37 like lines cut
eblock,10,,,56
(15i9)
     9693       13       12       13        0     3831     3823     3825     3825    10922    10887     3825    10923
     9694       13       12       13        0     3831     3827     3823     3823    10925    10895     3823    10922
     9695       13       12       13        0     3827     3821     3823     3823    10894    10877     3823    10895
     9696       13       12       13        0     4036     3821     3827     3827    11897    10894     3827    11898
     9697       13       12       13        0     4042     3829     3818     3818    11927    10906     3818    11926
     9698       13       12       13        0     4034     3821     4035     4035    11889    11893     4035    11895
     9699       13       12       13        0     3822     3824     4049     4049    10882    11955     4049    11954
     9700       13       12       13        0     4047     3824     3819     3819    11947    10881     3819    11946
     9701       13       12       13        0     3824     4047     4048     4048    11947    11953     4048    11950
     9702       13       12       13        0     4049     3824     4048     4048    11955    11950     4048    11957
     9703       13       12       13        0     4047     3819     4046     4046    11946    11944     4046    11949
     9704       13       12       13        0     4046     3819     4086     4086    11944    12163     4086    12164
     9705       13       12       13        0     4089     4032     4090     4090    12180    12183     4090    12185
     9706       13       12       13        0     4095     4046     4086     4086    12207    12164     4086    12208
     9707       13       12       13        0     4050     3822     4049     4049    11959    11954     4049    11963
     9708       13       12       13        0     4038     4037     3827     3827    11909    11902     3827    11907
     9709       13       12       13        0     4052     3825     4051     4051    11968    11964     4051    11971
     9710       13       12       13        0     4088     3828     4089     4089    12175    12179     4089    12182
     9711       13       12       13        0     3828     4032     4089     4089    11883    12180     4089    12179
     9712       13       12       13        0     4033     4032     3828     3828    11887    11883     3828    11885
! ... 37 like lines cut
keyo,cid,8,2               ! auto create asymmetric contact (from Program Controlled setting)
keyo,cid,10,0              ! adjust contact stiffness each NR iteration (from Program Controlled setting)
keyo,cid,12,0              ! standard contact
mp,mu,cid,0.15      ! unitless
keyo,cid,2,0               ! augmented Lagrange (from Program Controlled setting)
keyo,cid,4,0               ! on Gauss point (from Program Controlled setting)
keyo,cid,9,0               ! use real geometry with stepped effects
keyo,cid,7,0               ! No Prediction
rmod,tid,3,1.       ! FKN
rmod,tid,5,0.       ! ICONT
rmod,tid,6,0.       ! PINB
rmod,tid,10,0.      ! CNOF
rmod,tid,12,0.      ! FKT
rmod,tid,36,78      ! WB DSID
rmod,cid,3,1.       ! FKN
rmod,cid,5,0.       ! ICONT
rmod,cid,6,0.       ! PINB
rmod,cid,10,0.      ! CNOF
rmod,cid,12,0.      ! FKT
rmod,cid,36,78      ! WB DSID
nsel,all
esel,all
/wb,contact,end            !  done creating contacts
/golist
/wb,load,start             !  starting to send loads
/com,*********** Fixed Supports ***********
CMBLOCK,_FIXEDSU,NODE,      326
(8i10)
       746       747       748       749       750       751       752       753
       754       755       756       757       758       759       760       761
       762       763       764       765       766       767       768       769
       770       771       772       773       774       775       776       777
       778       779       780       781       782       783       784       785
       786       787       788       789       790       791       792       793
       794       795       796       797       798       799       800       801
       802       803       804       805      1118      1119      1120      1121
      1122      1123      1124      1125      1126      1127      1128      1129
      1130      1131      1132      1133      1134      1135      1136      1137
      1138      1139      1140      1141      1142      1143      1144      1145
      1146      1147      1148      1149      1150      1151      1152      1153
      1154      1155      1156      1157      1158      1159      1160      1161
      1162      1163      1164      1165      1166      1167      1168      1169
      1170      1171      1172      1173      1174      1175      1176      1177
      1178      1179      1180      1181      1182      1183      1184      1185
      1186      1187      1188      1189      1190      1191      1192      1193
      1194      1195      1196      1197      1198      1199      1200      1201
      1203      1205      1207      1209      1211      1213      1215      1217
      1219      1222      1224      1226      1228      1230      1232      1234
! ... 21 like lines cut
cmsel,s,_FIXEDSU
d,all,all
nsel,all
/com,******* Constant Zero Displacement Y *******
CMBLOCK,_DISPZEROUY,NODE,      784
(8i10)
        61        62        63        64        65        66        67        68
        69        70        71        72        73        74        75        76
        77        78        79        80        81        82        83        84
        85        86        87        88        89        90        91        92
        93        94        95        96        97        98        99       100
       101       102       103       104       105       106       107       108
       109       110       111       112       113       114       115       116
       117       118       119       120       121       122       123       124
       125       126       127       128       129       130       131       132
       133       134       135       136       137       138       139       140
       141       142       143       144       145       146       147       148
       149       150       151       152       153       154       155       156
       157       158       159       160       161       162       163       164
       165       166       167       168       169       170       171       172
       173       174       175       176       177       178       179       180
       181       182       183       184       185       186       187       188
       189       190       191       192       409       410       411       412
       413       414       415       416       417       418       419       420
       421       422       423       424       425       426       427       428
       429       430       431       432       433       434       435       436
! ... 78 like lines cut

cmsel,s,_DISPZEROUY
d,all,uy,0
nsel,all
/com,******* Constant Zero Displacement Z *******
CMBLOCK,_DISPZEROUZ,NODE,      784
(8i10)
        61        62        63        64        65        66        67        68
        69        70        71        72        73        74        75        76
        77        78        79        80        81        82        83        84
        85        86        87        88        89        90        91        92
        93        94        95        96        97        98        99       100
       101       102       103       104       105       106       107       108
       109       110       111       112       113       114       115       116
       117       118       119       120       121       122       123       124
       125       126       127       128       129       130       131       132
       133       134       135       136       137       138       139       140
       141       142       143       144       145       146       147       148
       149       150       151       152       153       154       155       156
       157       158       159       160       161       162       163       164
       165       166       167       168       169       170       171       172
       173       174       175       176       177       178       179       180
       181       182       183       184       185       186       187       188
       189       190       191       192       409       410       411       412
       413       414       415       416       417       418       419       420
       421       422       423       424       425       426       427       428
       429       430       431       432       433       434       435       436
! ... 78 like lines cut

cmsel,s,_DISPZEROUZ
d,all,uz,0
nsel,all
tblist
/gst,on,on
fini
*get,_numnode,node,0,count
*get,_numelem,elem,0,count
*get, _MAXELEMNUM, elem, 0, NUM, MAX
*get, _MAXNODENUM, node, 0, NUM, MAX
*get, _MAXELEMTYPE, etyp, 0, NUM, MAX
*get, _MAXREALCONST, rcon, 0, NUM, MAX
/go
/wb,load,end               !  done creating loads
/com,--- Number of total nodes = %_numnode%
/com,--- Number of contact elements = 1376
/com,--- Number of spring elements = 0
/com,--- Number of bearing elements = 0
/com,--- Number of solid elements = 6412
/com,--- Number of condensed parts = 0
/com,--- Number of total elements = %_numelem%
*get,_wallbsol,active,,time,wall
/com,****************************************************************************
/com,*************************    SOLUTION       ********************************
/com,****************************************************************************
/solu
antype,0                   ! static analysis
nlgeom,on                  ! Turn on Large Deformation Effects
_thickRatio=  1     ! Ratio of thick parts in the model
eqsl,sparse,,,,,1
cntr,print,1               ! print out contact info and also make no initial contact an error
nldiag,cont,iter           ! print out contact info each equilibrium iteration
rescontrol,define,last,last,,dele	   ! Program Controlled
/com,****************************************************
/com,******************* SOLVE FOR LS 1 OF 1 ****************
/com,*** Set Displacements ***
CMBLOCK,_CM60UX_XP,NODE,      392
(8i10)
      1397      1398      1399      1400      1401      1402      1403      1404
      1405      1406      1407      1408      1409      1410      1411      1412
      1413      1414      1415      1416      1417      1418      1419      1420
      1421      1422      1423      1424      1425      1426      1427      1428
      1429      1430      1431      1432      1433      1434      1435      1436
      1437      1438      1439      1440      1441      1442      1443      1444
      1445      1446      1447      1448      1449      1450      1451      1452
      1453      1454      1455      1456      1457      1458      1459      1460
      1461      1462      1463      1464      1465      1466      1467      1468
      1469      1470      1471      1472      1473      1474      1475      1476
      1477      1478      1479      1480      1481      1482      1483      1484
      1485      1486      1487      1488      1489      1490      1491      1492
      1493      1494      1495      1496      1497      1498      1499      1500
      1501      1502      1503      1504      1505      1506      1507      1508
      1509      1510      1511      1512      1513      1514      1515      1516
      1517      1518      1519      1520      1521      1522      1523      1524
      1525      1526      1527      1528      1745      1746      1747      1748
      1749      1750      1751      1752      1753      1754      1755      1756
      1757      1758      1759      1760      1761      1762      1763      1764
      1765      1766      1767      1768      1769      1770      1771      1772
! ... 29 like lines cut

cmsel,s,_CM60UX_XP
d,all,ux,-1.e-003
CMBLOCK,_CM62UX_XP,NODE,      392
(8i10)
        61        62        63        64        65        66        67        68
        69        70        71        72        73        74        75        76
        77        78        79        80        81        82        83        84
        85        86        87        88        89        90        91        92
        93        94        95        96        97        98        99       100
       101       102       103       104       105       106       107       108
       109       110       111       112       113       114       115       116
       117       118       119       120       121       122       123       124
       125       126       127       128       129       130       131       132
       133       134       135       136       137       138       139       140
       141       142       143       144       145       146       147       148
       149       150       151       152       153       154       155       156
       157       158       159       160       161       162       163       164
       165       166       167       168       169       170       171       172
       173       174       175       176       177       178       179       180
       181       182       183       184       185       186       187       188
       189       190       191       192       409       410       411       412
       413       414       415       416       417       418       419       420
       421       422       423       424       425       426       427       428
       429       430       431       432       433       434       435       436
! ... 29 like lines cut

cmsel,s,_CM62UX_XP
d,all,ux,-1.e-003
nsel,all

/com,*** Component For All Non-Zero UX Displacements ***
cmsel,s,_CM60ux_xp
cmsel,a,_CM62ux_xp
cm,_DISPNONZEROUX,NODE
nsel,all

/nopr
/gopr
autots,on                   ! User turned on automatic time stepping
nsub,10,1000,10,OFF
time,1.
outres,erase
outres,all,none
outres,nsol,all,
outres,rsol,all
outres,eangl,all
outres,etmp,all
outres,veng,all
outres,strs,all,
outres,epel,all,
outres,eppl,all,
outres,cont,all,
outres,nldat,all,
! *********** WB SOLVE COMMAND ***********
! check interactive state
*get,ANSINTER_,active,,int
*if,ANSINTER_,ne,0,then
/eof
*endif
solve
/com *************** Write FE CONNECTORS ********* 
CEWRITE,file,ce,,INTE
/com,****************************************************
/com,*************** FINISHED SOLVE FOR LS 1 *************
*get,_wallasol,active,,time,wall
/nopr
*get,_numnode,node,0,count
*get,_numelem,elem,0,count
*get, _MAXELEMNUM, elem, 0, NUM, MAX
*get, _MAXNODENUM, node, 0, NUM, MAX,,,INTERNAL
*get, _MAXELEMTYPE, etyp, 0, NUM, MAX
*get, _MAXREALCONST, rcon, 0, NUM, MAX
*get,_NSOLTHREADS,active,0,ntfs
*get,_NSOLPROCESSES,active,0,npfs
/gopr
/post1
xmlo,ENCODING,ISO-8859-1
xmlo,parm
/xml,parm,xml
fini
/gopr
*get,_walldone,active,,time,wall
_preptime=(_wallbsol-_wallstrt)*3600
_solvtime=(_wallasol-_wallbsol)*3600
_posttime=(_walldone-_wallasol)*3600
_totaltim=(_walldone-_wallstrt)*3600
*get,_dlbratio,active,0,solu,dlbr
*get,_combtime,active,0,solu,comb
*get,_ssmode,active,0,solu,ssmm
*get,_ndofs,active,0,solu,ndof
/com,--- Total number of nodes = %_numnode%
/com,--- Total number of elements = %_numelem%
/com,--- Element load balance ratio = %_dlbratio%
/com,--- Time to combine distributed files = %_combtime%
/com,--- Sparse memory mode = %_ssmode%
/com,--- Number of DOF = %_ndofs%
/wb,file,end               ! done with WB generated input
