/batch
/config,noeldb,1     ! force off writing results to database
*get,_wallstrt,active,,time,wall
! ANSYS input file written by Workbench version 2023 R2
! File used for geometry attach: E:\GitHub_repos\FEA_projects\HW2\elbow.scdoc
/title,HW2--Steady-State Thermal (C5)
! ****** Begin Custom Load Command Snippet ******
/COM, ACT Extensions:
/COM,     LSDYNA, 2023.2
/COM,     5f463412-bd3e-484b-87e7-cbc0a665e474, wbex
/COM,/COM,     ANSYSMotion, 2023.2
/COM,     20180725-3f81-49eb-9f31-41364844c769, wbex
/COM,
! ****** End   Custom Load Command Snippet ******
*DIM,_wb_ProjectScratch_dir,string,248
_wb_ProjectScratch_dir(1) = 'E:\GitHub_repos\FEA_projects\HW2\_ProjectScratch\Scr474F\'
*DIM,_wb_SolverFiles_dir,string,248
_wb_SolverFiles_dir(1) = 'E:\GitHub_repos\FEA_projects\HW2\HW2_files\dp0\SYS-7\MECH\'
*DIM,_wb_userfiles_dir,string,248
_wb_userfiles_dir(1) = 'E:\GitHub_repos\FEA_projects\HW2\HW2_files\user_files\'
/com,--- Data in consistent MKS units. See Solving Units in the help system for more information.
/units,MKS
/nopr
/wb,file,start              !  signify a WB generated input file
/prep7
! Turn off shape checking because checks already performed inside WB mesher.
! See help system for more information.
SHPP,OFF,,NOWARN
/nolist
etcon,set             ! allow ANSYS to choose best KEYOP's for 180x elements, resets any applicable keyopt to MAPDL defaults
/com,*********** Nodes for the whole assembly ***********
nblock,3,,7103
(1i9,3e20.9e3)
        1    -3.358225408E-02    -9.860639489E-03     2.000000000E-01
        2    -2.944387365E-02    -1.892242861E-02     2.000000000E-01
        3    -2.292012569E-02    -2.645123510E-02     2.000000000E-01
        4    -1.453952546E-02    -3.183711984E-02     2.000000000E-01
        5    -4.981019340E-03    -3.464375047E-02     2.000000000E-01
        6     4.981019340E-03    -3.464375047E-02     2.000000000E-01
        7     1.453952546E-02    -3.183711984E-02     2.000000000E-01
        8     2.292012569E-02    -2.645123510E-02     2.000000000E-01
        9     2.944387365E-02    -1.892242861E-02     2.000000000E-01
       10     3.358225408E-02    -9.860639489E-03     2.000000000E-01
       11     3.500000000E-02     2.775557562E-17     2.000000000E-01
       12     3.358225408E-02     9.860639489E-03     2.000000000E-01
       13     2.944387365E-02     1.892242861E-02     2.000000000E-01
       14     2.292012569E-02     2.645123510E-02     2.000000000E-01
       15     1.453952546E-02     3.183711984E-02     2.000000000E-01
       16     4.981019340E-03     3.464375047E-02     2.000000000E-01
       17    -4.981019340E-03     3.464375047E-02     2.000000000E-01
       18    -1.453952546E-02     3.183711984E-02     2.000000000E-01
       19    -2.292012569E-02     2.645123510E-02     2.000000000E-01
       20    -2.944387365E-02     1.892242861E-02     2.000000000E-01
! ... 6439 like lines cut
/wb,elem,start            !  set before creation of elements
/com,*********** Elements for Body 1 "elbow\Solid" ***********
et,1,279
eblock,19,solid,,1020
(19i9)
        1        1        1        1        0        0        0        0       20        0        1     1486     1551     1552     1487     1513     1816     1817     1512
     5806     5958     5809     5804     5867     6455     5865     5864     5805     5960     5963     5808
        1        1        1        1        0        0        0        0       20        0        2     1457     1572     1573     1458     1486     1551     1552     1487
     5718     6006     5721     5716     5806     5958     5809     5804     5717     5959     5962     5720
        1        1        1        1        0        0        0        0       20        0        3     1428     1593     1594     1429     1457     1572     1573     1458
     5630     6049     5633     5628     5718     6006     5721     5716     5629     6007     6009     5632
        1        1        1        1        0        0        0        0       20        0        4     1399     1614     1615     1400     1428     1593     1594     1429
     5542     6092     5545     5540     5630     6049     5633     5628     5541     6050     6052     5544
        1        1        1        1        0        0        0        0       20        0        5     1370     1635     1636     1371     1399     1614     1615     1400
     5454     6135     5457     5452     5542     6092     5545     5540     5453     6093     6095     5456
        1        1        1        1        0        0        0        0       20        0        6     1341     1656     1657     1342     1370     1635     1636     1371
     5366     6178     5369     5364     5454     6135     5457     5452     5365     6136     6138     5368
        1        1        1        1        0        0        0        0       20        0        7     1312     1677     1678     1313     1341     1656     1657     1342
     5278     6221     5281     5276     5366     6178     5369     5364     5277     6179     6181     5280
        1        1        1        1        0        0        0        0       20        0        8     1283     1698     1699     1284     1312     1677     1678     1313
     5190     6264     5193     5188     5278     6221     5281     5276     5189     6222     6224     5192
        1        1        1        1        0        0        0        0       20        0        9     1254     1719     1720     1255     1283     1698     1699     1284
     5102     6307     5105     5100     5190     6264     5193     5188     5101     6265     6267     5104
        1        1        1        1        0        0        0        0       20        0       10     1225     1740     1741     1226     1254     1719     1720     1255
     5014     6350     5017     5012     5102     6307     5105     5100     5013     6308     6310     5016
! ... 2021 like lines cut
!Material Id = {402AC699-79E2-4D1D-93BD-DEA52604EBE7}
/wb,elem,end               !  done creating elements
/com,*********** Send User Defined Coordinate System(s) ***********
csys,0
toffst,273.15,  ! Temperature offset from absolute zero
/wb,mat,start              !  starting to send materials
/com,*********** Send Materials ***********
Temperature = 'TEMP' ! Temperature
MP,DENS,1,7200,	! kg m^-3
MP,ALPX,1,1.1e-05,	! C^-1
MP,C,1,447,	! J kg^-1 C^-1
MPTEMP,,,,,,,,
MPTEMP,1,20
MPTEMP,2,100
MPTEMP,3,200
MPTEMP,4,300
MPTEMP,5,400
MPTEMP,6,500
MPDATA,KXX,1, ,51.6,50.8,49.8,48.8,47.8,46.8,	! W m^-1 C^-1
MPTEMP,,,,,,,,
MP,RSVX,1,9.6e-08,	! kg m^3 A^-2 s^-3
MP,EX,1,110000000000,	! Pa
MP,NUXY,1,0.28,
MP,MURX,1,10000,
MP,UVID,1,abb1cb32-abd8-4032-81aa-da7234f99931
MP,UMID,1,f60bcced-8a07-4217-aedb-972d67ace671

/wb,mat,end                !  done sending materials
!************************* Model Summary ********************
!elbow\Solid,	Gray Cast Iron,	matid,	1
!************************* End Model Summary ********************
! get the diagonal of the bounding box. Needed later for other things
*get,_xmin,node,,mnloc,x
*get,_ymin,node,,mnloc,y
*get,_zmin,node,,mnloc,z
*get,_xmax,node,,mxloc,x
*get,_ymax,node,,mxloc,y
*get,_zmax,node,,mxloc,z
_ASMDIAG=(_xmax-_xmin)*(_xmax-_xmin)+(_ymax-_ymin)*(_ymax-_ymin)+(_zmax-_zmin)*(_zmax-_zmin)
_ASMDIAG=SQRT(_ASMDIAG)
/wb,contact,start          !  starting to send contact
/wb,contact,end            !  done creating contacts
/golist
/wb,load,start             !  starting to send loads
fcum,add                   ! add nodal forces up (needed in case have loads on the same edge,vertex)
fcum                       ! reset default on fcum command since done sending WB F loads
/com,*********** Create "Convection" ***********
et,2,152
eblock,10,,,748
(15i9)
     2849        2        2        2        0      674      696       21        1     3620     1892     1822     1824
     2850        2        2        2        0      695      708      707      443     3641     3655     3128     3127
     2851        2        2        2        0      674      653      697      696     3577     3578     3644     3620
     2852        2        2        2        0      653      632      698      697     3534     3535     3645     3578
     2853        2        2        2        0      632      611      699      698     3491     3492     3646     3535
     2854        2        2        2        0      611      590      700      699     3448     3449     3647     3492
     2855        2        2        2        0      590      569      701      700     3405     3406     3648     3449
     2856        2        2        2        0      569      548      702      701     3362     3363     3649     3406
     2857        2        2        2        0      548      527      703      702     3319     3320     3650     3363
     2858        2        2        2        0      527      506      704      703     3276     3277     3651     3320
     2859        2        2        2        0      506      485      705      704     3233     3234     3652     3277
     2860        2        2        2        0      485      464      706      705     3190     3191     3653     3234
     2861        2        2        2        0      464      443      707      706     3126     3128     3654     3191
     2862        2        2        2        0      443      444      728      695     3125     3131     3642     3127
     2863        2        2        2        0      464      465      444      443     3189     3130     3125     3126
     2864        2        2        2        0      485      486      465      464     3232     3193     3189     3190
     2865        2        2        2        0      506      507      486      485     3275     3236     3232     3233
     2866        2        2        2        0      527      528      507      506     3318     3279     3275     3276
     2867        2        2        2        0      548      549      528      527     3361     3322     3318     3319
     2868        2        2        2        0      569      570      549      548     3404     3365     3361     3362
! ... 729 like lines cut
esel,s,type,,2
keyop,2,8,2.
keyop,2,13,0
/com,*********** Create "Convection 2" ***********
et,3,152
eblock,10,,,1020
(15i9)
     3597        3        3        3        0       51       23      402       53     1896     1897     1957     1953
     3598        3        3        3        0      372      413      414      401     2925     3037     3011     2924
     3599        3        3        3        0       82       53      402      403     1956     1957     3015     2045
     3600        3        3        3        0      111       82      403      404     2044     2045     3017     2133
     3601        3        3        3        0      140      111      404      405     2132     2133     3019     2221
     3602        3        3        3        0      169      140      405      406     2220     2221     3021     2309
     3603        3        3        3        0      198      169      406      407     2308     2309     3023     2397
     3604        3        3        3        0      227      198      407      408     2396     2397     3025     2485
     3605        3        3        3        0      256      227      408      409     2484     2485     3027     2573
     3606        3        3        3        0      285      256      409      410     2572     2573     3029     2661
     3607        3        3        3        0      314      285      410      411     2660     2661     3031     2749
     3608        3        3        3        0      343      314      411      412     2748     2749     3033     2837
     3609        3        3        3        0      372      343      412      413     2836     2837     3035     2925
     3610        3        3        3        0       53       54       52       51     1955     1954     1952     1953
     3611        3        3        3        0       82       83       54       53     2043     1960     1955     1956
     3612        3        3        3        0      111      112       83       82     2131     2048     2043     2044
     3613        3        3        3        0      140      141      112      111     2219     2136     2131     2132
     3614        3        3        3        0      169      170      141      140     2307     2224     2219     2220
     3615        3        3        3        0      198      199      170      169     2395     2312     2307     2308
     3616        3        3        3        0      227      228      199      198     2483     2400     2395     2396
! ... 1001 like lines cut
esel,s,type,,3
keyop,3,8,2.
keyop,3,13,0
esel,all
/com,***************** Define Uniform Initial temperature ***************
tunif,22.
/gst,on,on
fini
*get,_numnode,node,0,count
*get,_numelem,elem,0,count
*get, _MAXELEMNUM, elem, 0, NUM, MAX
*get, _MAXNODENUM, node, 0, NUM, MAX
*get, _MAXELEMTYPE, etyp, 0, NUM, MAX
*get, _MAXREALCONST, rcon, 0, NUM, MAX
/go
/wb,load,end               !  done creating loads
/com,--- Number of total nodes = %_numnode%
/com,--- Number of contact elements = 1768
/com,--- Number of spring elements = 0
/com,--- Number of bearing elements = 0
/com,--- Number of solid elements = 1020
/com,--- Number of condensed parts = 0
/com,--- Number of total elements = %_numelem%
*get,_wallbsol,active,,time,wall
/com,****************************************************************************
/com,*************************    SOLUTION       ********************************
/com,****************************************************************************
/solu
antype,0                   ! static analysis
!eqsl,sparse               ! using sparse solver which is default so no eqsl command needed
cntr,print,1               ! print out contact info and also make no initial contact an error
cncheck,dmp		!	Enable program controlled contact splitting for distributed memory parallel run
rescontrol,,none                 ! Do not keep any restart files
dmpoption,emat,no             ! Don't combine emat file for DANSYS
dmpoption,esav,no             ! Don't combine esav file for DANSYS
/com,****************************************************
/com,******************* SOLVE FOR LS 1 OF 1 ****************
esel,s,type,,2
nsle
sf,all,conv,20.,150.
esel,s,type,,3
nsle
sf,all,conv,3.7,20.
nsel,all
esel,all
/nopr
/gopr
autots,on
nsub,1,10,1
time,1.
outres,erase
outres,all,none
outres,nsol,all
outres,rsol,all
outres,eangl,all
outres,veng,all
outres,fflux,all
outres,cont,all
/nopr
esel,s,type,,2
esel,a,type,,3
cm,_elmisc,elem
esel,all
/gopr
outres,misc,all,_elmisc
cnvtol,heat,,.001,,1.e-006    ! Program Controlled. Set MINREF equivalent of 1e-6 Watts
! *********** WB SOLVE COMMAND ***********
! check interactive state
*get,ANSINTER_,active,,int
*if,ANSINTER_,ne,0,then
/eof
*endif
solve
/com *************** Write FE CONNECTORS ********* 
CEWRITE,file,ce,,INTE
/com,****************************************************
/com,*************** FINISHED SOLVE FOR LS 1 *************
*get,_wallasol,active,,time,wall
/post1
xmlo,ENCODING,ISO-8859-1
xmlo,parm
/xml,parm,xml
fini
/gopr
*get,_walldone,active,,time,wall
_preptime=(_wallbsol-_wallstrt)*3600
_solvtime=(_wallasol-_wallbsol)*3600
_posttime=(_walldone-_wallasol)*3600
_totaltim=(_walldone-_wallstrt)*3600
*get,_dlbratio,active,0,solu,dlbr
*get,_combtime,active,0,solu,comb
*get,_ssmode,active,0,solu,ssmm
*get,_ndofs,active,0,solu,ndof
/fclean				!clean distributed files
/com,--- Total number of nodes = %_numnode%
/com,--- Total number of elements = %_numelem%
/com,--- Element load balance ratio = %_dlbratio%
/com,--- Time to combine distributed files = %_combtime%
/com,--- Sparse memory mode = %_ssmode%
/com,--- Number of DOF = %_ndofs%
/wb,file,end               ! done with WB generated input
