/batch
/config,noeldb,1     ! force off writing results to database
*get,_wallstrt,active,,time,wall
! ANSYS input file written by Workbench version 2023 R2
! File used for geometry attach: E:\GitHub_repos\FEA_projects\HW2\elbow+24.scdoc
/title,HW2--Steady-State Thermal (G5)
! ****** Begin Custom Load Command Snippet ******
/COM, ACT Extensions:
/COM,     LSDYNA, 2023.2
/COM,     5f463412-bd3e-484b-87e7-cbc0a665e474, wbex
/COM,/COM,     ANSYSMotion, 2023.2
/COM,     20180725-3f81-49eb-9f31-41364844c769, wbex
/COM,
! ****** End   Custom Load Command Snippet ******
*DIM,_wb_ProjectScratch_dir,string,248
_wb_ProjectScratch_dir(1) = 'E:\GitHub_repos\FEA_projects\HW2\_ProjectScratch\Scr826D\'
*DIM,_wb_SolverFiles_dir,string,248
_wb_SolverFiles_dir(1) = 'E:\GitHub_repos\FEA_projects\HW2\HW2_files\dp0\SYS-1\MECH\'
*DIM,_wb_userfiles_dir,string,248
_wb_userfiles_dir(1) = 'E:\GitHub_repos\FEA_projects\HW2\HW2_files\user_files\'
/com,--- Data in consistent MKS units. See Solving Units in the help system for more information.
/units,MKS
/nopr
/wb,file,start              !  signify a WB generated input file
/prep7
! Turn off shape checking because checks already performed inside WB mesher.
! See help system for more information.
SHPP,OFF,,NOWARN
/nolist
etcon,set             ! allow ANSYS to choose best KEYOP's for 180x elements, resets any applicable keyopt to MAPDL defaults
/com,*********** Nodes for the whole assembly ***********
nblock,3,,17007
(1i9,3e20.9e3)
     8934    -3.358225408E-02    -9.860639489E-03     2.000000000E-01
     8935    -2.944387365E-02    -1.892242861E-02     2.000000000E-01
     8936    -2.292012569E-02    -2.645123510E-02     2.000000000E-01
     8937    -1.453952546E-02    -3.183711984E-02     2.000000000E-01
     8938    -4.981019340E-03    -3.464375047E-02     2.000000000E-01
     8939     4.981019340E-03    -3.464375047E-02     2.000000000E-01
     8940     1.453952546E-02    -3.183711984E-02     2.000000000E-01
     8941     2.292012569E-02    -2.645123510E-02     2.000000000E-01
     8942     2.944387365E-02    -1.892242861E-02     2.000000000E-01
     8943     3.358225408E-02    -9.860639489E-03     2.000000000E-01
     8944     3.500000000E-02     2.775557562E-17     2.000000000E-01
     8945     3.358225408E-02     9.860639489E-03     2.000000000E-01
     8946     2.944387365E-02     1.892242861E-02     2.000000000E-01
     8947     2.292012569E-02     2.645123510E-02     2.000000000E-01
     8948     1.453952546E-02     3.183711984E-02     2.000000000E-01
     8949     4.981019340E-03     3.464375047E-02     2.000000000E-01
     8950    -4.981019340E-03     3.464375047E-02     2.000000000E-01
     8951    -1.453952546E-02     3.183711984E-02     2.000000000E-01
     8952    -2.292012569E-02     2.645123510E-02     2.000000000E-01
     8953    -2.944387365E-02     1.892242861E-02     2.000000000E-01
! ... 15442 like lines cut
/wb,elem,start            !  set before creation of elements
/com,*********** Elements for Body 1 "elbow+24\Solid" ***********
et,1,279
eblock,19,solid,,1440
(19i9)
        1        1        1        1        0        0        0        0       20        0        1        1        8       10        9      320      313      311      312
     2509     2544     2549     2510     3703     3698     3697     3700     2512     2546     2555     2551
        1        1        1        1        0        0        0        0       20        0        2        1        9       10        8       11       19       20       18
     2510     2549     2544     2509     2558     2589     2585     2557     2511     2550     2554     2545
        1        1        1        1        0        0        0        0       20        0        3       11       19       20       18       21       29       30       28
     2558     2589     2585     2557     2596     2627     2623     2595     2559     2590     2593     2586
        1        1        1        1        0        0        0        0       20        0        4       21       29       30       28       31       39       40       38
     2596     2627     2623     2595     2634     2665     2661     2633     2597     2628     2631     2624
        1        1        1        1        0        0        0        0       20        0        5       31       39       40       38       41       49       50       48
     2634     2665     2661     2633     2672     2703     2699     2671     2635     2666     2669     2662
        1        1        1        1        0        0        0        0       20        0        6       41       49       50       48       51       59       60       58
     2672     2703     2699     2671     2710     2741     2737     2709     2673     2704     2707     2700
        1        1        1        1        0        0        0        0       20        0        7       51       59       60       58       61       69       70       68
     2710     2741     2737     2709     2748     2779     2775     2747     2711     2742     2745     2738
        1        1        1        1        0        0        0        0       20        0        8       61       69       70       68       71       79       80       78
     2748     2779     2775     2747     2786     2817     2813     2785     2749     2780     2783     2776
        1        1        1        1        0        0        0        0       20        0        9       71       79       80       78       81       89       90       88
     2786     2817     2813     2785     2824     2855     2851     2823     2787     2818     2821     2814
        1        1        1        1        0        0        0        0       20        0       10       81       89       90       88       91       99      100       98
     2824     2855     2851     2823     2862     2893     2889     2861     2825     2856     2859     2852
! ... 2861 like lines cut
!Material Id = {BCC44576-3332-46A2-A8CA-1D6D4A6005E1}
/com,*********** Elements for Body 2 "elbow+24\Solid" ***********
et,2,279
eblock,19,solid,,1088
(19i9)
        2        2        2        2        0        0        0        0       20        0     1441    10410    10478    10479    10411    10455    10743    10744    10454
    14779    14943    14782    14777    14888    15452    14886    14885    14778    14945    14948    14781
        2        2        2        2        0        0        0        0       20        0     1442    10381    10499    10500    10382    10410    10478    10479    10411
    14689    14997    14692    14687    14779    14943    14782    14777    14688    14944    14947    14691
        2        2        2        2        0        0        0        0       20        0     1443    10352    10520    10521    10353    10381    10499    10500    10382
    14599    15040    14602    14597    14689    14997    14692    14687    14598    14998    15000    14601
        2        2        2        2        0        0        0        0       20        0     1444    10323    10541    10542    10324    10352    10520    10521    10353
    14509    15083    14512    14507    14599    15040    14602    14597    14508    15041    15043    14511
        2        2        2        2        0        0        0        0       20        0     1445    10294    10562    10563    10295    10323    10541    10542    10324
    14419    15126    14422    14417    14509    15083    14512    14507    14418    15084    15086    14421
        2        2        2        2        0        0        0        0       20        0     1446    10265    10583    10584    10266    10294    10562    10563    10295
    14329    15169    14332    14327    14419    15126    14422    14417    14328    15127    15129    14331
        2        2        2        2        0        0        0        0       20        0     1447    10236    10604    10605    10237    10265    10583    10584    10266
    14239    15212    14242    14237    14329    15169    14332    14327    14238    15170    15172    14241
        2        2        2        2        0        0        0        0       20        0     1448    10207    10625    10626    10208    10236    10604    10605    10237
    14149    15255    14152    14147    14239    15212    14242    14237    14148    15213    15215    14151
        2        2        2        2        0        0        0        0       20        0     1449    10178    10646    10647    10179    10207    10625    10626    10208
    14059    15298    14062    14057    14149    15255    14152    14147    14058    15256    15258    14061
        2        2        2        2        0        0        0        0       20        0     1450    10149    10667    10668    10150    10178    10646    10647    10179
    13969    15341    13972    13967    14059    15298    14062    14057    13968    15299    15301    13971
! ... 2157 like lines cut
!Material Id = {598AE800-6A4D-480D-9A33-110B6446B49E}
/wb,elem,end               !  done creating elements
/com,*********** Send User Defined Coordinate System(s) ***********
csys,0
toffst,273.15,  ! Temperature offset from absolute zero
/wb,mat,start              !  starting to send materials
/com,*********** Send Materials ***********
MP,KXX,1,0.2,	! W m^-1 C^-1
MP,UVID,1,686bc1e1-142b-43a5-a2d6-62882b952aa6

MP,KXX,2,0.2,	! W m^-1 C^-1
MP,UVID,2,686bc1e1-142b-43a5-a2d6-62882b952aa6

/wb,mat,end                !  done sending materials
!************************* Model Summary ********************
!elbow+24\Solid,	Insulation,	matid,	1
!elbow+24\Solid,	Insulation,	matid,	2
!************************* End Model Summary ********************
! get the diagonal of the bounding box. Needed later for other things
*get,_xmin,node,,mnloc,x
*get,_ymin,node,,mnloc,y
*get,_zmin,node,,mnloc,z
*get,_xmax,node,,mxloc,x
*get,_ymax,node,,mxloc,y
*get,_zmax,node,,mxloc,z
_ASMDIAG=(_xmax-_xmin)*(_xmax-_xmin)+(_ymax-_ymin)*(_ymax-_ymin)+(_zmax-_zmin)*(_zmax-_zmin)
_ASMDIAG=SQRT(_ASMDIAG)
/wb,contact,start          !  starting to send contact
/com,*********** Create Contact "Contact Region" ***********
/com,            Real Constant Set For Above Contact Is 4 & 3 
*set,tid,4
*set,cid,3
r,tid
r,cid
et,tid,170
et,cid,174
eblock,10,,,928
(15i9)
     6563        4        4        4        0     1889     1920     1919     1917     7764     7824     7819     7763
     6564        4        4        4        0     1918     1932     1931     1581     7821     7837     7110     7109
     6565        4        4        4        0     1889     1861     1921     1920     7706     7707     7826     7764
     6566        4        4        4        0     1861     1833     1922     1921     7649     7650     7827     7707
     6567        4        4        4        0     1833     1805     1923     1922     7592     7593     7828     7650
     6568        4        4        4        0     1805     1777     1924     1923     7535     7536     7829     7593
     6569        4        4        4        0     1777     1749     1925     1924     7478     7479     7830     7536
     6570        4        4        4        0     1749     1721     1926     1925     7421     7422     7831     7479
     6571        4        4        4        0     1721     1693     1927     1926     7364     7365     7832     7422
     6572        4        4        4        0     1693     1665     1928     1927     7307     7308     7833     7365
     6573        4        4        4        0     1665     1637     1929     1928     7250     7251     7834     7308
     6574        4        4        4        0     1637     1609     1930     1929     7193     7194     7835     7251
     6575        4        4        4        0     1609     1581     1931     1930     7108     7110     7836     7194
     6576        4        4        4        0     1581     1582     1986     1918     7107     7113     7822     7109
     6577        4        4        4        0     1609     1610     1582     1581     7192     7112     7107     7108
     6578        4        4        4        0     1637     1638     1610     1609     7249     7196     7192     7193
     6579        4        4        4        0     1665     1666     1638     1637     7306     7253     7249     7250
     6580        4        4        4        0     1693     1694     1666     1665     7363     7310     7306     7307
     6581        4        4        4        0     1721     1722     1694     1693     7420     7367     7363     7364
     6582        4        4        4        0     1749     1750     1722     1721     7477     7424     7420     7421
! ... 909 like lines cut
eblock,10,,,928
(15i9)
     7491        3        3        3        0     1889     1920     1919     1917     7764     7824     7819     7763
     7492        3        3        3        0     1918     1932     1931     1581     7821     7837     7110     7109
     7493        3        3        3        0     1889     1861     1921     1920     7706     7707     7826     7764
     7494        3        3        3        0     1861     1833     1922     1921     7649     7650     7827     7707
     7495        3        3        3        0     1833     1805     1923     1922     7592     7593     7828     7650
     7496        3        3        3        0     1805     1777     1924     1923     7535     7536     7829     7593
     7497        3        3        3        0     1777     1749     1925     1924     7478     7479     7830     7536
     7498        3        3        3        0     1749     1721     1926     1925     7421     7422     7831     7479
     7499        3        3        3        0     1721     1693     1927     1926     7364     7365     7832     7422
     7500        3        3        3        0     1693     1665     1928     1927     7307     7308     7833     7365
     7501        3        3        3        0     1665     1637     1929     1928     7250     7251     7834     7308
     7502        3        3        3        0     1637     1609     1930     1929     7193     7194     7835     7251
     7503        3        3        3        0     1609     1581     1931     1930     7108     7110     7836     7194
     7504        3        3        3        0     1581     1582     1986     1918     7107     7113     7822     7109
     7505        3        3        3        0     1609     1610     1582     1581     7192     7112     7107     7108
     7506        3        3        3        0     1637     1638     1610     1609     7249     7196     7192     7193
     7507        3        3        3        0     1665     1666     1638     1637     7306     7253     7249     7250
     7508        3        3        3        0     1693     1694     1666     1665     7363     7310     7306     7307
     7509        3        3        3        0     1721     1722     1694     1693     7420     7367     7363     7364
     7510        3        3        3        0     1749     1750     1722     1721     7477     7424     7420     7421
! ... 909 like lines cut
eblock,10,,,1020
(15i9)
     8419        3        4        3        0     9874     9873    10427    10078    13306    13308    13748    13312
     8420        3        4        3        0    10397    10438    10439    10426    14738    14852    14826    14737
     8421        3        4        3        0    10107    10078    10427    10428    13747    13748    14830    13838
     8422        3        4        3        0    10136    10107    10428    10429    13837    13838    14832    13928
     8423        3        4        3        0    10165    10136    10429    10430    13927    13928    14834    14018
     8424        3        4        3        0    10194    10165    10430    10431    14017    14018    14836    14108
     8425        3        4        3        0    10223    10194    10431    10432    14107    14108    14838    14198
     8426        3        4        3        0    10252    10223    10432    10433    14197    14198    14840    14288
     8427        3        4        3        0    10281    10252    10433    10434    14287    14288    14842    14378
     8428        3        4        3        0    10310    10281    10434    10435    14377    14378    14844    14468
     8429        3        4        3        0    10339    10310    10435    10436    14467    14468    14846    14558
     8430        3        4        3        0    10368    10339    10436    10437    14557    14558    14848    14648
     8431        3        4        3        0    10397    10368    10437    10438    14647    14648    14850    14738
     8432        3        4        3        0    10078    10079     9875     9874    13746    13315    13309    13312
     8433        3        4        3        0    10107    10108    10079    10078    13836    13752    13746    13747
     8434        3        4        3        0    10136    10137    10108    10107    13926    13842    13836    13837
     8435        3        4        3        0    10165    10166    10137    10136    14016    13932    13926    13927
     8436        3        4        3        0    10194    10195    10166    10165    14106    14022    14016    14017
     8437        3        4        3        0    10223    10224    10195    10194    14196    14112    14106    14107
     8438        3        4        3        0    10252    10253    10224    10223    14286    14202    14196    14197
! ... 1001 like lines cut
eblock,10,,,1020
(15i9)
     9439        4        3        4        0     9874     9873    10427    10078    13306    13308    13748    13312
     9440        4        3        4        0    10397    10438    10439    10426    14738    14852    14826    14737
     9441        4        3        4        0    10107    10078    10427    10428    13747    13748    14830    13838
     9442        4        3        4        0    10136    10107    10428    10429    13837    13838    14832    13928
     9443        4        3        4        0    10165    10136    10429    10430    13927    13928    14834    14018
     9444        4        3        4        0    10194    10165    10430    10431    14017    14018    14836    14108
     9445        4        3        4        0    10223    10194    10431    10432    14107    14108    14838    14198
     9446        4        3        4        0    10252    10223    10432    10433    14197    14198    14840    14288
     9447        4        3        4        0    10281    10252    10433    10434    14287    14288    14842    14378
     9448        4        3        4        0    10310    10281    10434    10435    14377    14378    14844    14468
     9449        4        3        4        0    10339    10310    10435    10436    14467    14468    14846    14558
     9450        4        3        4        0    10368    10339    10436    10437    14557    14558    14848    14648
     9451        4        3        4        0    10397    10368    10437    10438    14647    14648    14850    14738
     9452        4        3        4        0    10078    10079     9875     9874    13746    13315    13309    13312
     9453        4        3        4        0    10107    10108    10079    10078    13836    13752    13746    13747
     9454        4        3        4        0    10136    10137    10108    10107    13926    13842    13836    13837
     9455        4        3        4        0    10165    10166    10137    10136    14016    13932    13926    13927
     9456        4        3        4        0    10194    10195    10166    10165    14106    14022    14016    14017
     9457        4        3        4        0    10223    10224    10195    10194    14196    14112    14106    14107
     9458        4        3        4        0    10252    10253    10224    10223    14286    14202    14196    14197
! ... 1001 like lines cut
keyo,cid,8,2               ! auto create asymmetric contact (from Program Controlled setting)
keyo,cid,10,0              ! adjust contact stiffness each NR iteration (from Program Controlled setting)
keyo,cid,12,5              ! bonded always
keyo,cid,18,1              ! small sliding turned on by application
keyo,cid,2,0               ! augmented Lagrange (from Program Controlled setting)
keyo,cid,4,0               ! on Gauss point (from Program Controlled setting)
keyo,cid,9,1               ! ignore initial gaps/penetration
keyo,cid,7,0               ! No Prediction
rmod,tid,3,10.      ! FKN
rmod,tid,5,0.       ! ICONT
rmod,tid,6,0.       ! PINB
rmod,tid,10,0.      ! CNOF
rmod,tid,12,0.      ! FKT
rmod,tid,36,63      ! WB DSID
rmod,cid,3,10.      ! FKN
rmod,cid,5,0.       ! ICONT
rmod,cid,6,0.       ! PINB
rmod,cid,10,0.      ! CNOF
rmod,cid,12,0.      ! FKT
rmod,cid,36,63      ! WB DSID
*set,_maxkxx,2000.
rmod,cid,14,_maxkxx/_ASMDIAG         ! TCC, Divide by Length since Traction Based
rmod,tid,14,_maxkxx/_ASMDIAG      ! TCC, Divide by Length since Traction Based
keyo,cid,1,2     ! Pure thermal contact
nsel,all
esel,all
/wb,contact,end            !  done creating contacts
/golist
/wb,load,start             !  starting to send loads
fcum,add                   ! add nodal forces up (needed in case have loads on the same edge,vertex)
fcum                       ! reset default on fcum command since done sending WB F loads
/com,*********** Create "Convection" ***********
et,5,152
eblock,10,,,748
(15i9)
    10459        5        5        5        0     9607     9629     8954     8934    12581    10827    10755    10759
    10460        5        5        5        0     9628     9641     9640     9376    12602    12616    12089    12088
    10461        5        5        5        0     9607     9586     9630     9629    12538    12539    12605    12581
    10462        5        5        5        0     9586     9565     9631     9630    12495    12496    12606    12539
    10463        5        5        5        0     9565     9544     9632     9631    12452    12453    12607    12496
    10464        5        5        5        0     9544     9523     9633     9632    12409    12410    12608    12453
    10465        5        5        5        0     9523     9502     9634     9633    12366    12367    12609    12410
    10466        5        5        5        0     9502     9481     9635     9634    12323    12324    12610    12367
    10467        5        5        5        0     9481     9460     9636     9635    12280    12281    12611    12324
    10468        5        5        5        0     9460     9439     9637     9636    12237    12238    12612    12281
    10469        5        5        5        0     9439     9418     9638     9637    12194    12195    12613    12238
    10470        5        5        5        0     9418     9397     9639     9638    12151    12152    12614    12195
    10471        5        5        5        0     9397     9376     9640     9639    12087    12089    12615    12152
    10472        5        5        5        0     9376     9377     9661     9628    12086    12092    12603    12088
    10473        5        5        5        0     9397     9398     9377     9376    12150    12091    12086    12087
    10474        5        5        5        0     9418     9419     9398     9397    12193    12154    12150    12151
    10475        5        5        5        0     9439     9440     9419     9418    12236    12197    12193    12194
    10476        5        5        5        0     9460     9461     9440     9439    12279    12240    12236    12237
    10477        5        5        5        0     9481     9482     9461     9460    12322    12283    12279    12280
    10478        5        5        5        0     9502     9503     9482     9481    12365    12326    12322    12323
! ... 729 like lines cut
esel,s,type,,5
keyop,5,8,2.
keyop,5,13,0
/com,*********** Create "Convection 2" ***********
et,6,152
eblock,10,,,1184
(15i9)
    11207        6        6        6        0     1102     1136     1569     1137     5839     5930     5934     5840
    11208        6        6        6        0     1533     1580      360      395     7022     3840     3839     3910
    11209        6        6        6        0     1173     1137     1569     1570     5933     5934     7084     6033
    11210        6        6        6        0     1209     1173     1570     1571     6032     6033     7086     6132
    11211        6        6        6        0     1245     1209     1571     1572     6131     6132     7088     6231
    11212        6        6        6        0     1281     1245     1572     1573     6230     6231     7090     6330
    11213        6        6        6        0     1317     1281     1573     1574     6329     6330     7092     6429
    11214        6        6        6        0     1353     1317     1574     1575     6428     6429     7094     6528
    11215        6        6        6        0     1389     1353     1575     1576     6527     6528     7096     6627
    11216        6        6        6        0     1425     1389     1576     1577     6626     6627     7098     6726
    11217        6        6        6        0     1461     1425     1577     1578     6725     6726     7100     6825
    11218        6        6        6        0     1497     1461     1578     1579     6824     6825     7102     6924
    11219        6        6        6        0     1533     1497     1579     1580     6923     6924     7104     7022
    11220        6        6        6        0     1137     1138     1103     1102     5932     5843     5838     5840
    11221        6        6        6        0     1173     1174     1138     1137     6031     5937     5932     5933
    11222        6        6        6        0     1209     1210     1174     1173     6130     6036     6031     6032
    11223        6        6        6        0     1245     1246     1210     1209     6229     6135     6130     6131
    11224        6        6        6        0     1281     1282     1246     1245     6328     6234     6229     6230
    11225        6        6        6        0     1317     1318     1282     1281     6427     6333     6328     6329
    11226        6        6        6        0     1353     1354     1318     1317     6526     6432     6427     6428
! ... 1165 like lines cut
esel,s,type,,6
keyop,6,8,2.
keyop,6,13,0
esel,all
/com,***************** Define Uniform Initial temperature ***************
tunif,22.
/gst,on,on
fini
*get,_numnode,node,0,count
*get,_numelem,elem,0,count
*get, _MAXELEMNUM, elem, 0, NUM, MAX
*get, _MAXNODENUM, node, 0, NUM, MAX
*get, _MAXELEMTYPE, etyp, 0, NUM, MAX
*get, _MAXREALCONST, rcon, 0, NUM, MAX
/go
/wb,load,end               !  done creating loads
/com,--- Number of total nodes = %_numnode%
/com,--- Number of contact elements = 5828
/com,--- Number of spring elements = 0
/com,--- Number of bearing elements = 0
/com,--- Number of solid elements = 2528
/com,--- Number of condensed parts = 0
/com,--- Number of total elements = %_numelem%
*get,_wallbsol,active,,time,wall
/com,****************************************************************************
/com,*************************    SOLUTION       ********************************
/com,****************************************************************************
/solu
antype,0                   ! static analysis
!eqsl,sparse               ! using sparse solver which is default so no eqsl command needed
cntr,print,1               ! print out contact info and also make no initial contact an error
rescontrol,,none                 ! Do not keep any restart files
/com,****************************************************
/com,******************* SOLVE FOR LS 1 OF 1 ****************
esel,s,type,,5
nsle
sf,all,conv,20.,150.
esel,s,type,,6
nsle
sf,all,conv,3.7,20.
nsel,all
esel,all
/nopr
/gopr
autots,on
nsub,1,10,1
time,1.
outres,erase
outres,all,none
outres,nsol,all
outres,rsol,all
outres,eangl,all
outres,veng,all
outres,fflux,all
outres,cont,all
/nopr
esel,s,type,,5
esel,a,type,,6
cm,_elmisc,elem
esel,all
/gopr
outres,misc,all,_elmisc
cnvtol,heat,,.001,,1.e-006    ! Program Controlled. Set MINREF equivalent of 1e-6 Watts
! *********** WB SOLVE COMMAND ***********
! check interactive state
*get,ANSINTER_,active,,int
*if,ANSINTER_,ne,0,then
/eof
*endif
solve
/com *************** Write FE CONNECTORS ********* 
CEWRITE,file,ce,,INTE
/com,****************************************************
/com,*************** FINISHED SOLVE FOR LS 1 *************
*get,_wallasol,active,,time,wall
/post1
xmlo,ENCODING,ISO-8859-1
xmlo,parm
/xml,parm,xml
fini
/gopr
*get,_walldone,active,,time,wall
_preptime=(_wallbsol-_wallstrt)*3600
_solvtime=(_wallasol-_wallbsol)*3600
_posttime=(_walldone-_wallasol)*3600
_totaltim=(_walldone-_wallstrt)*3600
*get,_dlbratio,active,0,solu,dlbr
*get,_combtime,active,0,solu,comb
*get,_ssmode,active,0,solu,ssmm
*get,_ndofs,active,0,solu,ndof
/com,--- Total number of nodes = %_numnode%
/com,--- Total number of elements = %_numelem%
/com,--- Element load balance ratio = %_dlbratio%
/com,--- Time to combine distributed files = %_combtime%
/com,--- Sparse memory mode = %_ssmode%
/com,--- Number of DOF = %_ndofs%
/wb,file,end               ! done with WB generated input
