/batch
/config,noeldb,1     ! force off writing results to database
*get,_wallstrt,active,,time,wall
! ANSYS input file written by Workbench version 2023 R2
! File used for geometry attach: E:\GitHub_repos\FEA_projects\HW2\HW2_files\dp0\SYS-4\DM\SYS-4.scdoc
/title,HW2--Steady-State Thermal (E5)
! ****** Begin Custom Load Command Snippet ******
/COM, ACT Extensions:
/COM,     LSDYNA, 2023.2
/COM,     5f463412-bd3e-484b-87e7-cbc0a665e474, wbex
/COM,/COM,     ANSYSMotion, 2023.2
/COM,     20180725-3f81-49eb-9f31-41364844c769, wbex
/COM,
! ****** End   Custom Load Command Snippet ******
*DIM,_wb_ProjectScratch_dir,string,248
_wb_ProjectScratch_dir(1) = 'E:\GitHub_repos\FEA_projects\HW2\_ProjectScratch\Scr5320\'
*DIM,_wb_SolverFiles_dir,string,248
_wb_SolverFiles_dir(1) = 'E:\GitHub_repos\FEA_projects\HW2\HW2_files\dp0\SYS-4\MECH\'
*DIM,_wb_userfiles_dir,string,248
_wb_userfiles_dir(1) = 'E:\GitHub_repos\FEA_projects\HW2\HW2_files\user_files\'
/com,--- Data in consistent MKS units. See Solving Units in the help system for more information.
/units,MKS
/nopr
/wb,file,start              !  signify a WB generated input file
/prep7
! Turn off shape checking because checks already performed inside WB mesher.
! See help system for more information.
SHPP,OFF,,NOWARN
/nolist
etcon,set             ! allow ANSYS to choose best KEYOP's for 180x elements, resets any applicable keyopt to MAPDL defaults
/com,*********** Nodes for the whole assembly ***********
nblock,3,,14680
(1i9,3e20.9e3)
        1     1.900000000E-01    -3.238896804E-02    -2.236575905E-02
        2     1.900000000E-01    -9.958946782E-03    -3.903754698E-02
        3     1.900000000E-01    -3.048698235E-03    -4.035698268E-02
        4     1.900000000E-01    -2.352111325E-02     3.318679313E-02
        5     1.900000000E-01    -2.764457204E-02     2.935566833E-02
        6     1.800000000E-01    -3.238904200E-02    -2.236561660E-02
        7     1.800000000E-01    -9.959174074E-03    -3.903745708E-02
        8     1.800000000E-01    -3.048797692E-03    -4.035697067E-02
        9     1.800000000E-01    -2.352156897E-02     3.318647770E-02
       10     1.800000000E-01    -2.764492901E-02     2.935537203E-02
       11     1.700000000E-01    -3.238911595E-02    -2.236547416E-02
       12     1.700000000E-01    -9.959401366E-03    -3.903736717E-02
       13     1.700000000E-01    -3.048897148E-03    -4.035695866E-02
       14     1.700000000E-01    -2.352202469E-02     3.318616226E-02
       15     1.700000000E-01    -2.764528598E-02     2.935507573E-02
       16     1.600000000E-01    -3.238918990E-02    -2.236533171E-02
       17     1.600000000E-01    -9.959628656E-03    -3.903727726E-02
       18     1.600000000E-01    -3.048996604E-03    -4.035694665E-02
       19     1.600000000E-01    -2.352248040E-02     3.318584681E-02
       20     1.600000000E-01    -2.764564295E-02     2.935477942E-02
! ... 13327 like lines cut
/wb,elem,start            !  set before creation of elements
/com,*********** Elements for Body 1 "SYS-4\Solid" ***********
et,1,279
eblock,19,solid,,870
(19i9)
        1        1        1        1        0        0        0        0       20        0        1     1201     1255     1256     1202     1228     1406     1407     1227
     4680     4797     4683     4678     4738     5080     4736     4735     4679     4799     4802     4682
        1        1        1        1        0        0        0        0       20        0        2     1175     1269     1270     1176     1201     1255     1256     1202
     4606     4831     4609     4604     4680     4797     4683     4678     4605     4798     4801     4608
        1        1        1        1        0        0        0        0       20        0        3     1149     1283     1284     1150     1175     1269     1270     1176
     4532     4860     4535     4530     4606     4831     4609     4604     4531     4832     4834     4534
        1        1        1        1        0        0        0        0       20        0        4     1123     1297     1298     1124     1149     1283     1284     1150
     4458     4889     4461     4456     4532     4860     4535     4530     4457     4861     4863     4460
        1        1        1        1        0        0        0        0       20        0        5     1097     1311     1312     1098     1123     1297     1298     1124
     4384     4918     4387     4382     4458     4889     4461     4456     4383     4890     4892     4386
        1        1        1        1        0        0        0        0       20        0        6     1071     1325     1326     1072     1097     1311     1312     1098
     4310     4947     4313     4308     4384     4918     4387     4382     4309     4919     4921     4312
        1        1        1        1        0        0        0        0       20        0        7     1045     1339     1340     1046     1071     1325     1326     1072
     4236     4976     4239     4234     4310     4947     4313     4308     4235     4948     4950     4238
        1        1        1        1        0        0        0        0       20        0        8     1019     1353     1354     1020     1045     1339     1340     1046
     4162     5005     4165     4160     4236     4976     4239     4234     4161     4977     4979     4164
        1        1        1        1        0        0        0        0       20        0        9      993     1367     1368      994     1019     1353     1354     1020
     4088     5034     4091     4086     4162     5005     4165     4160     4087     5006     5008     4090
        1        1        1        1        0        0        0        0       20        0       10      967     1381     1382      968      993     1367     1368      994
     4014     5054     4017     4012     4088     5034     4091     4086     4013     5035     5037     4016
! ... 1721 like lines cut
!Material Id = {C33214C4-578B-43FA-BA47-098A01BD0B56}
/com,*********** Elements for Body 2 "SYS-4\Solid" ***********
et,2,279
eblock,19,solid,,1258
(19i9)
        2        2        2        2        0        0        0        0       20        0      871     6352     6818     6819     6353     6387     7174     7173     6386
    11217    12175    11220    11215    11298    12888    11296    11295    11216    12177    12180    11219
        2        2        2        2        0        0        0        0       20        0      872     6319     6847     6848     6320     6352     6818     6819     6353
    11120    12244    11123    11118    11217    12175    11220    11215    11119    12176    12179    11122
        2        2        2        2        0        0        0        0       20        0      873     6286     6876     6877     6287     6319     6847     6848     6320
    11023    12303    11026    11021    11120    12244    11123    11118    11022    12245    12247    11025
        2        2        2        2        0        0        0        0       20        0      874     6253     6905     6906     6254     6286     6876     6877     6287
    10926    12362    10929    10924    11023    12303    11026    11021    10925    12304    12306    10928
        2        2        2        2        0        0        0        0       20        0      875     6220     6934     6935     6221     6253     6905     6906     6254
    10829    12421    10832    10827    10926    12362    10929    10924    10828    12363    12365    10831
        2        2        2        2        0        0        0        0       20        0      876     6187     6963     6964     6188     6220     6934     6935     6221
    10732    12480    10735    10730    10829    12421    10832    10827    10731    12422    12424    10734
        2        2        2        2        0        0        0        0       20        0      877     6154     6992     6993     6155     6187     6963     6964     6188
    10635    12539    10638    10633    10732    12480    10735    10730    10634    12481    12483    10637
        2        2        2        2        0        0        0        0       20        0      878     6121     7021     7022     6122     6154     6992     6993     6155
    10538    12598    10541    10536    10635    12539    10638    10633    10537    12540    12542    10540
        2        2        2        2        0        0        0        0       20        0      879     6088     7050     7051     6089     6121     7021     7022     6122
    10441    12657    10444    10439    10538    12598    10541    10536    10440    12599    12601    10443
        2        2        2        2        0        0        0        0       20        0      880     6055     7079     7080     6056     6088     7050     7051     6089
    10344    12716    10347    10342    10441    12657    10444    10439    10343    12658    12660    10346
! ... 2497 like lines cut
!Material Id = {8A619D8F-1844-40C4-AC11-BE036A1C5C25}
/wb,elem,end               !  done creating elements
/com,*********** Send User Defined Coordinate System(s) ***********
csys,0
toffst,273.15,  ! Temperature offset from absolute zero
/wb,mat,start              !  starting to send materials
/com,*********** Send Materials ***********
Temperature = 'TEMP' ! Temperature
MP,DENS,1,7200,	! kg m^-3
MP,ALPX,1,1.1e-05,	! C^-1
MP,C,1,447,	! J kg^-1 C^-1
MPTEMP,,,,,,,,
MPTEMP,1,20
MPTEMP,2,100
MPTEMP,3,200
MPTEMP,4,300
MPTEMP,5,400
MPTEMP,6,500
MPDATA,KXX,1, ,51.6,50.8,49.8,48.8,47.8,46.8,	! W m^-1 C^-1
MPTEMP,,,,,,,,
MP,RSVX,1,9.6e-08,	! kg m^3 A^-2 s^-3
MP,EX,1,110000000000,	! Pa
MP,NUXY,1,0.28,
MP,MURX,1,10000,
MP,UVID,1,abb1cb32-abd8-4032-81aa-da7234f99931
MP,UMID,1,f60bcced-8a07-4217-aedb-972d67ace671

MP,KXX,2,0.2,	! W m^-1 C^-1
MP,UVID,2,686bc1e1-142b-43a5-a2d6-62882b952aa6

/wb,mat,end                !  done sending materials
!************************* Model Summary ********************
!SYS-4\Solid,	Gray Cast Iron,	matid,	1
!SYS-4\Solid,	Insulation,	matid,	2
!************************* End Model Summary ********************
! get the diagonal of the bounding box. Needed later for other things
*get,_xmin,node,,mnloc,x
*get,_ymin,node,,mnloc,y
*get,_zmin,node,,mnloc,z
*get,_xmax,node,,mxloc,x
*get,_ymax,node,,mxloc,y
*get,_zmax,node,,mxloc,z
_ASMDIAG=(_xmax-_xmin)*(_xmax-_xmin)+(_ymax-_ymin)*(_ymax-_ymin)+(_zmax-_zmin)*(_zmax-_zmin)
_ASMDIAG=SQRT(_ASMDIAG)
/wb,contact,start          !  starting to send contact
/com,*********** Create Contact "Contact Region" ***********
/com,            Real Constant Set For Above Contact Is 4 & 3 
*set,tid,4
*set,cid,3
r,tid
r,cid
et,tid,170
et,cid,174
eblock,10,,,783
(15i9)
     5657        4        4        4        0      454      452      170      172     2791     2009     2008     2012
     5658        4        4        4        0      464      453      218      463     2792     2150     2151     2813
     5659        4        4        4        0      454      455      426      452     2795     2743     2742     2791
     5660        4        4        4        0      455      456      400      426     2797     2669     2668     2743
     5661        4        4        4        0      456      457      374      400     2799     2595     2594     2669
     5662        4        4        4        0      457      458      348      374     2801     2521     2520     2595
     5663        4        4        4        0      458      459      322      348     2803     2447     2446     2521
     5664        4        4        4        0      459      460      296      322     2805     2373     2372     2447
     5665        4        4        4        0      460      461      270      296     2807     2299     2298     2373
     5666        4        4        4        0      461      462      244      270     2809     2225     2224     2299
     5667        4        4        4        0      462      463      218      244     2811     2151     2149     2225
     5668        4        4        4        0      463      193      489      464     2054     2055     2815     2813
     5669        4        4        4        0      462      219      193      463     2154     2053     2054     2811
     5670        4        4        4        0      461      245      219      462     2228     2153     2154     2809
     5671        4        4        4        0      460      271      245      461     2302     2227     2228     2807
     5672        4        4        4        0      459      297      271      460     2376     2301     2302     2805
     5673        4        4        4        0      458      323      297      459     2450     2375     2376     2803
     5674        4        4        4        0      457      349      323      458     2524     2449     2450     2801
     5675        4        4        4        0      456      375      349      457     2598     2523     2524     2799
     5676        4        4        4        0      455      401      375      456     2672     2597     2598     2797
! ... 764 like lines cut
eblock,10,,,783
(15i9)
     6440        3        3        3        0      454      452      170      172     2791     2009     2008     2012
     6441        3        3        3        0      464      453      218      463     2792     2150     2151     2813
     6442        3        3        3        0      454      455      426      452     2795     2743     2742     2791
     6443        3        3        3        0      455      456      400      426     2797     2669     2668     2743
     6444        3        3        3        0      456      457      374      400     2799     2595     2594     2669
     6445        3        3        3        0      457      458      348      374     2801     2521     2520     2595
     6446        3        3        3        0      458      459      322      348     2803     2447     2446     2521
     6447        3        3        3        0      459      460      296      322     2805     2373     2372     2447
     6448        3        3        3        0      460      461      270      296     2807     2299     2298     2373
     6449        3        3        3        0      461      462      244      270     2809     2225     2224     2299
     6450        3        3        3        0      462      463      218      244     2811     2151     2149     2225
     6451        3        3        3        0      463      193      489      464     2054     2055     2815     2813
     6452        3        3        3        0      462      219      193      463     2154     2053     2054     2811
     6453        3        3        3        0      461      245      219      462     2228     2153     2154     2809
     6454        3        3        3        0      460      271      245      461     2302     2227     2228     2807
     6455        3        3        3        0      459      297      271      460     2376     2301     2302     2805
     6456        3        3        3        0      458      323      297      459     2450     2375     2376     2803
     6457        3        3        3        0      457      349      323      458     2524     2449     2450     2801
     6458        3        3        3        0      456      375      349      457     2598     2523     2524     2799
     6459        3        3        3        0      455      401      375      456     2672     2597     2598     2797
! ... 764 like lines cut
eblock,10,,,1020
(15i9)
     7223        3        4        3        0     7118     7150     7149     7147    12797    12859    12854    12796
     7224        3        4        3        0     7148     7162     7161     6799    12857    12873    12120    12119
     7225        3        4        3        0     7118     7089     7151     7150    12737    12738    12862    12797
     7226        3        4        3        0     7089     7060     7152     7151    12678    12679    12863    12738
     7227        3        4        3        0     7060     7031     7153     7152    12619    12620    12864    12679
     7228        3        4        3        0     7031     7002     7154     7153    12560    12561    12865    12620
     7229        3        4        3        0     7002     6973     7155     7154    12501    12502    12866    12561
     7230        3        4        3        0     6973     6944     7156     7155    12442    12443    12867    12502
     7231        3        4        3        0     6944     6915     7157     7156    12383    12384    12868    12443
     7232        3        4        3        0     6915     6886     7158     7157    12324    12325    12869    12384
     7233        3        4        3        0     6886     6857     7159     7158    12265    12266    12870    12325
     7234        3        4        3        0     6857     6828     7160     7159    12206    12207    12871    12266
     7235        3        4        3        0     6828     6799     7161     7160    12118    12120    12872    12207
     7236        3        4        3        0     6799     6800     7192     7148    12117    12123    12858    12119
     7237        3        4        3        0     6828     6829     6800     6799    12205    12122    12117    12118
     7238        3        4        3        0     6857     6858     6829     6828    12264    12209    12205    12206
     7239        3        4        3        0     6886     6887     6858     6857    12323    12268    12264    12265
     7240        3        4        3        0     6915     6916     6887     6886    12382    12327    12323    12324
     7241        3        4        3        0     6944     6945     6916     6915    12441    12386    12382    12383
     7242        3        4        3        0     6973     6974     6945     6944    12500    12445    12441    12442
! ... 1001 like lines cut
eblock,10,,,1020
(15i9)
     8243        4        3        4        0     7118     7150     7149     7147    12797    12859    12854    12796
     8244        4        3        4        0     7148     7162     7161     6799    12857    12873    12120    12119
     8245        4        3        4        0     7118     7089     7151     7150    12737    12738    12862    12797
     8246        4        3        4        0     7089     7060     7152     7151    12678    12679    12863    12738
     8247        4        3        4        0     7060     7031     7153     7152    12619    12620    12864    12679
     8248        4        3        4        0     7031     7002     7154     7153    12560    12561    12865    12620
     8249        4        3        4        0     7002     6973     7155     7154    12501    12502    12866    12561
     8250        4        3        4        0     6973     6944     7156     7155    12442    12443    12867    12502
     8251        4        3        4        0     6944     6915     7157     7156    12383    12384    12868    12443
     8252        4        3        4        0     6915     6886     7158     7157    12324    12325    12869    12384
     8253        4        3        4        0     6886     6857     7159     7158    12265    12266    12870    12325
     8254        4        3        4        0     6857     6828     7160     7159    12206    12207    12871    12266
     8255        4        3        4        0     6828     6799     7161     7160    12118    12120    12872    12207
     8256        4        3        4        0     6799     6800     7192     7148    12117    12123    12858    12119
     8257        4        3        4        0     6828     6829     6800     6799    12205    12122    12117    12118
     8258        4        3        4        0     6857     6858     6829     6828    12264    12209    12205    12206
     8259        4        3        4        0     6886     6887     6858     6857    12323    12268    12264    12265
     8260        4        3        4        0     6915     6916     6887     6886    12382    12327    12323    12324
     8261        4        3        4        0     6944     6945     6916     6915    12441    12386    12382    12383
     8262        4        3        4        0     6973     6974     6945     6944    12500    12445    12441    12442
! ... 1001 like lines cut
keyo,cid,8,2               ! auto create asymmetric contact (from Program Controlled setting)
keyo,cid,10,0              ! adjust contact stiffness each NR iteration (from Program Controlled setting)
keyo,cid,12,5              ! bonded always
keyo,cid,18,1              ! small sliding turned on by application
keyo,cid,2,0               ! augmented Lagrange (from Program Controlled setting)
keyo,cid,4,0               ! on Gauss point (from Program Controlled setting)
keyo,cid,9,1               ! ignore initial gaps/penetration
keyo,cid,7,0               ! No Prediction
rmod,tid,3,10.      ! FKN
rmod,tid,5,0.       ! ICONT
rmod,tid,6,0.       ! PINB
rmod,tid,10,0.      ! CNOF
rmod,tid,12,0.      ! FKT
rmod,tid,36,32      ! WB DSID
rmod,cid,3,10.      ! FKN
rmod,cid,5,0.       ! ICONT
rmod,cid,6,0.       ! PINB
rmod,cid,10,0.      ! CNOF
rmod,cid,12,0.      ! FKT
rmod,cid,36,32      ! WB DSID
*set,_maxkxx,516000.
rmod,cid,14,_maxkxx/_ASMDIAG         ! TCC, Divide by Length since Traction Based
rmod,tid,14,_maxkxx/_ASMDIAG      ! TCC, Divide by Length since Traction Based
keyo,cid,1,2     ! Pure thermal contact
nsel,all
esel,all
/wb,contact,end            !  done creating contacts
/golist
/wb,load,start             !  starting to send loads
fcum,add                   ! add nodal forces up (needed in case have loads on the same edge,vertex)
fcum                       ! reset default on fcum command since done sending WB F loads
/com,*********** Create "Convection" ***********
et,5,152
eblock,10,,,435
(15i9)
     9263        5        5        5        0      616      631      164      151     3164     1994     1947     1949
     9264        5        5        5        0      630      641      640      490     3178     3190     2891     2890
     9265        5        5        5        0      616      602      632      631     3135     3136     3181     3164
     9266        5        5        5        0      602      588      633      632     3106     3107     3182     3136
     9267        5        5        5        0      588      574      634      633     3077     3078     3183     3107
     9268        5        5        5        0      574      560      635      634     3048     3049     3184     3078
     9269        5        5        5        0      560      546      636      635     3019     3020     3185     3049
     9270        5        5        5        0      546      532      637      636     2990     2991     3186     3020
     9271        5        5        5        0      532      518      638      637     2961     2962     3187     2991
     9272        5        5        5        0      518      504      639      638     2932     2933     3188     2962
     9273        5        5        5        0      504      490      640      639     2889     2891     3189     2933
     9274        5        5        5        0      490      491      654      630     2888     2894     3179     2890
     9275        5        5        5        0      504      505      491      490     2931     2893     2888     2889
     9276        5        5        5        0      518      519      505      504     2960     2935     2931     2932
     9277        5        5        5        0      532      533      519      518     2989     2964     2960     2961
     9278        5        5        5        0      546      547      533      532     3018     2993     2989     2990
     9279        5        5        5        0      560      561      547      546     3047     3022     3018     3019
     9280        5        5        5        0      574      575      561      560     3076     3051     3047     3048
     9281        5        5        5        0      588      589      575      574     3105     3080     3076     3077
     9282        5        5        5        0      602      603      589      588     3134     3109     3105     3106
! ... 416 like lines cut
esel,s,type,,5
keyop,5,8,2.
keyop,5,13,0
/com,*********** Create "Convection 2" ***********
et,6,152
eblock,10,,,1156
(15i9)
     9698        6        6        6        0     5935     5966     6364     5967     9993    10082    10086     9994
     9699        6        6        6        0     6330     6375     6376     6363    11153    11273    11248    11152
     9700        6        6        6        0     6000     5967     6364     6365    10085    10086    11251    10183
     9701        6        6        6        0     6033     6000     6365     6366    10182    10183    11253    10280
     9702        6        6        6        0     6066     6033     6366     6367    10279    10280    11255    10377
     9703        6        6        6        0     6099     6066     6367     6368    10376    10377    11257    10474
     9704        6        6        6        0     6132     6099     6368     6369    10473    10474    11259    10571
     9705        6        6        6        0     6165     6132     6369     6370    10570    10571    11261    10668
     9706        6        6        6        0     6198     6165     6370     6371    10667    10668    11263    10765
     9707        6        6        6        0     6231     6198     6371     6372    10764    10765    11265    10862
     9708        6        6        6        0     6264     6231     6372     6373    10861    10862    11267    10959
     9709        6        6        6        0     6297     6264     6373     6374    10958    10959    11269    11056
     9710        6        6        6        0     6330     6297     6374     6375    11055    11056    11271    11153
     9711        6        6        6        0     5967     5968     5936     5935    10084     9997     9992     9994
     9712        6        6        6        0     6000     6001     5968     5967    10181    10089    10084    10085
     9713        6        6        6        0     6033     6034     6001     6000    10278    10186    10181    10182
     9714        6        6        6        0     6066     6067     6034     6033    10375    10283    10278    10279
     9715        6        6        6        0     6099     6100     6067     6066    10472    10380    10375    10376
     9716        6        6        6        0     6132     6133     6100     6099    10569    10477    10472    10473
     9717        6        6        6        0     6165     6166     6133     6132    10666    10574    10569    10570
! ... 1137 like lines cut
esel,s,type,,6
keyop,6,8,2.
keyop,6,13,0
esel,all
/com,***************** Define Uniform Initial temperature ***************
tunif,22.
/gst,on,on
fini
*get,_numnode,node,0,count
*get,_numelem,elem,0,count
*get, _MAXELEMNUM, elem, 0, NUM, MAX
*get, _MAXNODENUM, node, 0, NUM, MAX
*get, _MAXELEMTYPE, etyp, 0, NUM, MAX
*get, _MAXREALCONST, rcon, 0, NUM, MAX
/go
/wb,load,end               !  done creating loads
/com,--- Number of total nodes = %_numnode%
/com,--- Number of contact elements = 5197
/com,--- Number of spring elements = 0
/com,--- Number of bearing elements = 0
/com,--- Number of solid elements = 2128
/com,--- Number of condensed parts = 0
/com,--- Number of total elements = %_numelem%
*get,_wallbsol,active,,time,wall
/com,****************************************************************************
/com,*************************    SOLUTION       ********************************
/com,****************************************************************************
/solu
antype,0                   ! static analysis
!eqsl,sparse               ! using sparse solver which is default so no eqsl command needed
cntr,print,1               ! print out contact info and also make no initial contact an error
cncheck,dmp		!	Enable program controlled contact splitting for distributed memory parallel run
rescontrol,,none                 ! Do not keep any restart files
dmpoption,emat,no             ! Don't combine emat file for DANSYS
dmpoption,esav,no             ! Don't combine esav file for DANSYS
/com,****************************************************
/com,******************* SOLVE FOR LS 1 OF 1 ****************
esel,s,type,,5
nsle
sf,all,conv,20.,150.
esel,s,type,,6
nsle
sf,all,conv,3.7,20.
nsel,all
esel,all
/nopr
/gopr
autots,on
nsub,1,10,1
time,1.
outres,erase
outres,all,none
outres,nsol,all
outres,rsol,all
outres,eangl,all
outres,veng,all
outres,fflux,all
outres,cont,all
/nopr
esel,s,type,,5
esel,a,type,,6
cm,_elmisc,elem
esel,all
/gopr
outres,misc,all,_elmisc
cnvtol,heat,,.001,,1.e-006    ! Program Controlled. Set MINREF equivalent of 1e-6 Watts
! *********** WB SOLVE COMMAND ***********
! check interactive state
*get,ANSINTER_,active,,int
*if,ANSINTER_,ne,0,then
/eof
*endif
solve
/com *************** Write FE CONNECTORS ********* 
CEWRITE,file,ce,,INTE
/com,****************************************************
/com,*************** FINISHED SOLVE FOR LS 1 *************
*get,_wallasol,active,,time,wall
/post1
xmlo,ENCODING,ISO-8859-1
xmlo,parm
/xml,parm,xml
fini
/gopr
*get,_walldone,active,,time,wall
_preptime=(_wallbsol-_wallstrt)*3600
_solvtime=(_wallasol-_wallbsol)*3600
_posttime=(_walldone-_wallasol)*3600
_totaltim=(_walldone-_wallstrt)*3600
*get,_dlbratio,active,0,solu,dlbr
*get,_combtime,active,0,solu,comb
*get,_ssmode,active,0,solu,ssmm
*get,_ndofs,active,0,solu,ndof
/fclean				!clean distributed files
/com,--- Total number of nodes = %_numnode%
/com,--- Total number of elements = %_numelem%
/com,--- Element load balance ratio = %_dlbratio%
/com,--- Time to combine distributed files = %_combtime%
/com,--- Sparse memory mode = %_ssmode%
/com,--- Number of DOF = %_ndofs%
/wb,file,end               ! done with WB generated input
