/batch
/config,noeldb,1     ! force off writing results to database
*get,_wallstrt,active,,time,wall
! ANSYS input file written by Workbench version 2023 R2
! File used for geometry attach: E:\GitHub_repos\FEA_projects\HW5\hw5_files (2)\hw5_files\hw5_files\dp0\SYS\DM\SYS.scdoc
/title,hw5--Static Structural (A5)
! ****** Begin Custom Load Command Snippet ******
/COM, ACT Extensions:
/COM,     LSDYNA, 2023.2
/COM,     5f463412-bd3e-484b-87e7-cbc0a665e474, wbex
/COM,/COM,     ANSYSMotion, 2023.2
/COM,     20180725-3f81-49eb-9f31-41364844c769, wbex
/COM,
! ****** End   Custom Load Command Snippet ******
*DIM,_wb_ProjectScratch_dir,string,248
_wb_ProjectScratch_dir(1) = 'E:\GitHub_repos\FEA_projects\HW5\hw5_files (2)\hw5_files\_ProjectScratch\Scr3136\'
*DIM,_wb_SolverFiles_dir,string,248
_wb_SolverFiles_dir(1) = 'E:\GitHub_repos\FEA_projects\HW5\hw5_files (2)\hw5_files\hw5_files\dp0\SYS\MECH\'
*DIM,_wb_userfiles_dir,string,248
_wb_userfiles_dir(1) = 'E:\GitHub_repos\FEA_projects\HW5\hw5_files (2)\hw5_files\hw5_files\user_files\'
/com,--- Data in consistent MKS units. See Solving Units in the help system for more information.
/units,MKS
/nopr
/wb,file,start              !  signify a WB generated input file
/prep7
! Turn off shape checking because checks already performed inside WB mesher.
! See help system for more information.
SHPP,OFF,,NOWARN
/nolist
etcon,set             ! allow ANSYS to choose best KEYOP's for 180x elements, resets any applicable keyopt to MAPDL defaults
/com,*********** Nodes for the whole assembly ***********
nblock,3,,562
(1i9,3e20.9e3)
        1     1.764488054E+01    -6.565108946E-01    -2.961965740E+00
        2     1.764488054E+01    -3.670825958E-01    -2.961965740E+00
        3     1.480000000E+01     0.000000000E+00    -3.520000000E+00
        4     1.669658703E+01    -4.376739297E-01    -3.147977160E+00
        5     1.574829351E+01    -2.188369649E-01    -3.333988580E+00
        6     1.764488054E+01    -7.938759362E-01    -2.961965740E+00
        7     1.764488054E+01     0.000000000E+00    -2.961965740E+00
        8     1.574829351E+01     0.000000000E+00    -3.333988580E+00
        9     1.669658703E+01     0.000000000E+00    -3.147977160E+00
       10     1.759625995E+01    -2.870970000E+00    -2.028497145E+00
       11     1.759625995E+01    -2.107436147E+00    -2.028497145E+00
       12     1.764488054E+01    -2.094160034E+00    -2.038034260E+00
       13     1.764488054E+01    -2.870970000E+00    -2.038034260E+00
       14     1.629273685E+01    -2.870970000E+00    -2.742397975E+00
       15     1.696880870E+01    -2.870970000E+00    -2.390216118E+00
       16     1.764488054E+01    -2.870970000E+00    -2.961965740E+00
       17     1.960748009E+01    -2.870970000E+00    -2.423005710E+00
       18     2.000000000E+01    -2.870970000E+00    -2.500000000E+00
       19     1.882244027E+01    -2.870970000E+00    -2.730982870E+00
       20     1.480000000E+01    -2.870970000E+00    -3.520000000E+00
! ... 492 like lines cut
/wb,elem,start            !  set before creation of elements
/com,*********** Elements for Body 1 "Beam (large)" ***********
et,1,188
keyo,1,3,2
eblock,19,solid,,150
(19i9)
        1        1        1        1        0        0        0        0        3        0        1        1        4      230
        1        1        1        1        0        0        0        0        3        0        2        4        5      231
        1        1        1        1        0        0        0        0        3        0        3        5        3      232
        1        1        1        1        0        0        0        0        3        0        4        3        8      233
        1        1        1        1        0        0        0        0        3        0        5        8        9      234
        1        1        1        1        0        0        0        0        3        0        6        9        7      235
        1        1        1        1        0        0        0        0        3        0        7       17       18      236
        1        1        1        1        0        0        0        0        3        0        8       18       19      237
        1        1        1        1        0        0        0        0        3        0        9       19       16      238
        1        1        1        1        0        0        0        0        3        0       10       16       21      239
        1        1        1        1        0        0        0        0        3        0       11       21       22      240
        1        1        1        1        0        0        0        0        3        0       12       22       20      241
        1        1        1        1        0        0        0        0        3        0       13       23       24      242
        1        1        1        1        0        0        0        0        3        0       14       24       25      243
        1        1        1        1        0        0        0        0        3        0       15       25       20      244
        1        1        1        1        0        0        0        0        3        0       16       23       27      245
        1        1        1        1        0        0        0        0        3        0       17       27       26      246
        1        1        1        1        0        0        0        0        3        0       18       28       26      247
        1        1        1        1        0        0        0        0        3        0       19       29       28      248
        1        1        1        1        0        0        0        0        3        0       20       18       29      249
! ... 131 like lines cut
!Material Id = {38F286EC-F68D-4896-A028-F8690CA58B47}
/com,*********** Elements for Body 2 "Beam (small)" ***********
et,2,188
keyo,2,3,2
eblock,19,solid,,125
(19i9)
        2        2        2        2        0        0        0        0        3        0      151        1        2      380
        2        2        2        2        0        0        0        0        3        0      152        6        1      381
        2        2        2        2        0        0        0        0        3        0      153        2        7      382
        2        2        2        2        0        0        0        0        3        0      154       12       13      383
        2        2        2        2        0        0        0        0        3        0      155       13       15      384
        2        2        2        2        0        0        0        0        3        0      156       15       14      385
        2        2        2        2        0        0        0        0        3        0      157       16       13      386
        2        2        2        2        0        0        0        0        3        0      158       77       78      387
        2        2        2        2        0        0        0        0        3        0      159       78       79      388
        2        2        2        2        0        0        0        0        3        0      160       79       48      389
        2        2        2        2        0        0        0        0        3        0      161      142      143      390
        2        2        2        2        0        0        0        0        3        0      162      143        6      391
        2        2        2        2        0        0        0        0        3        0      163        7      145      392
        2        2        2        2        0        0        0        0        3        0      164      145      144      393
        2        2        2        2        0        0        0        0        3        0      165      144      146      394
        2        2        2        2        0        0        0        0        3        0      166      146       13      395
        2        2        2        2        0        0        0        0        3        0      167      147       12      396
        2        2        2        2        0        0        0        0        3        0      168      148      147      397
        2        2        2        2        0        0        0        0        3        0      169      116      148      398
        2        2        2        2        0        0        0        0        3        0      170      116      149      399
! ... 106 like lines cut
!Material Id = {4CF31623-0839-4841-A50E-E5B7D3E3AA81}
/com,*********** Elements for Body 3 "Beam (small)" ***********
et,3,188
keyo,3,3,2
eblock,19,solid,,2
(19i9)
        3        3        3        3        0        0        0        0        3        0      276      124      115      505
        3        3        3        3        0        0        0        0        3        0      277      124      118      506
-1
!Material Id = {8EA2B7F7-5956-4FBE-9273-4AB8BAD4648D}
/com,*********** Elements for Body 4 "Beam (small)" ***********
et,4,188
keyo,4,3,2
eblock,19,solid,,2
(19i9)
        4        4        4        4        0        0        0        0        3        0      278       17       28      507
        4        4        4        4        0        0        0        0        3        0      279       28      112      508
-1
!Material Id = {ECCBE9C9-9E02-4959-919D-FEFFD7924424}
/com,*********** Elements for Body 5 "Beam (small)" ***********
et,5,188
keyo,5,3,2
eblock,19,solid,,3
(19i9)
        5        5        5        5        0        0        0        0        3        0      280       10       11      509
        5        5        5        5        0        0        0        0        3        0      281       11      229      510
        5        5        5        5        0        0        0        0        3        0      282      229      133      511
-1
!Material Id = {3350E575-B829-4F1B-ACF6-A1777BFF4F49}
/wb,elem,end               !  done creating elements
/com,*********** Send User Defined Coordinate System(s) ***********
csys,0
toffst,273.15,  ! Temperature offset from absolute zero
/com,*********** Set Reference Temperature ***********
tref,22.
/wb,mat,start              !  starting to send materials
/com,*********** Send Materials ***********
Temperature = 'TEMP' ! Temperature
MP,DENS,1,7850,	! kg m^-3
MP,ALPX,1,1.2e-05,	! C^-1
MP,C,1,434,	! J kg^-1 C^-1
MP,KXX,1,60.5,	! W m^-1 C^-1
MP,RSVX,1,1.7e-07,	! kg m^3 A^-2 s^-3
MP,EX,1,200000000000,	! Pa
MP,NUXY,1,0.3,
MP,MURX,1,10000,
MP,UVID,1,61e34ba2-4411-4a1a-af2a-db5171704c22
MP,UMID,1,59002a79-71c2-428e-906b-55d7dbee100e

Temperature = 'TEMP' ! Temperature
MP,DENS,2,7850,	! kg m^-3
MP,ALPX,2,1.2e-05,	! C^-1
MP,C,2,434,	! J kg^-1 C^-1
MP,KXX,2,60.5,	! W m^-1 C^-1
MP,RSVX,2,1.7e-07,	! kg m^3 A^-2 s^-3
MP,EX,2,200000000000,	! Pa
MP,NUXY,2,0.3,
MP,MURX,2,10000,
MP,UVID,2,61e34ba2-4411-4a1a-af2a-db5171704c22
MP,UMID,2,59002a79-71c2-428e-906b-55d7dbee100e

Temperature = 'TEMP' ! Temperature
MP,DENS,3,7850,	! kg m^-3
MP,ALPX,3,1.2e-05,	! C^-1
MP,C,3,434,	! J kg^-1 C^-1
MP,KXX,3,60.5,	! W m^-1 C^-1
MP,RSVX,3,1.7e-07,	! kg m^3 A^-2 s^-3
MP,EX,3,200000000000,	! Pa
MP,NUXY,3,0.3,
MP,MURX,3,10000,
MP,UVID,3,61e34ba2-4411-4a1a-af2a-db5171704c22
MP,UMID,3,59002a79-71c2-428e-906b-55d7dbee100e

Temperature = 'TEMP' ! Temperature
MP,DENS,4,7850,	! kg m^-3
MP,ALPX,4,1.2e-05,	! C^-1
MP,C,4,434,	! J kg^-1 C^-1
MP,KXX,4,60.5,	! W m^-1 C^-1
MP,RSVX,4,1.7e-07,	! kg m^3 A^-2 s^-3
MP,EX,4,200000000000,	! Pa
MP,NUXY,4,0.3,
MP,MURX,4,10000,
MP,UVID,4,61e34ba2-4411-4a1a-af2a-db5171704c22
MP,UMID,4,59002a79-71c2-428e-906b-55d7dbee100e

Temperature = 'TEMP' ! Temperature
MP,DENS,5,7850,	! kg m^-3
MP,ALPX,5,1.2e-05,	! C^-1
MP,C,5,434,	! J kg^-1 C^-1
MP,KXX,5,60.5,	! W m^-1 C^-1
MP,RSVX,5,1.7e-07,	! kg m^3 A^-2 s^-3
MP,EX,5,200000000000,	! Pa
MP,NUXY,5,0.3,
MP,MURX,5,10000,
MP,UVID,5,61e34ba2-4411-4a1a-af2a-db5171704c22
MP,UMID,5,59002a79-71c2-428e-906b-55d7dbee100e

/wb,mat,end                !  done sending materials
/com,*********** Send Beam Properties ***********
SECTYPE,1,BEAM,HREC
SECDATA,0.149999999999994,0.149999999999994,4.99999999999996e-003,4.99999999999945e-003,4.99999999999996e-003,5.00000000000128e-003
secoffset,cent

SECTYPE,2,BEAM,HREC
SECDATA,2.50000000000022e-002,2.50000000000022e-002,4.99999999999997e-003,4.99999999999997e-003,4.99999999999997e-003,5.00000000000014e-003
secoffset,cent

SECTYPE,3,BEAM,HREC
SECDATA,2.50000000000022e-002,2.50000000000022e-002,4.99999999999997e-003,4.99999999999997e-003,4.99999999999997e-003,5.00000000000014e-003
secoffset,cent

SECTYPE,4,BEAM,HREC
SECDATA,2.50000000000022e-002,2.50000000000022e-002,4.99999999999997e-003,4.99999999999997e-003,4.99999999999997e-003,5.00000000000014e-003
secoffset,cent

SECTYPE,5,BEAM,HREC
SECDATA,2.50000000000022e-002,2.50000000000022e-002,4.99999999999997e-003,4.99999999999997e-003,4.99999999999997e-003,5.00000000000014e-003
secoffset,cent

!************************* Model Summary ********************
!Beam (large),	Structural Steel,	matid,	1
!Beam (small),	Structural Steel,	matid,	2
!Beam (small),	Structural Steel,	matid,	3
!Beam (small),	Structural Steel,	matid,	4
!Beam (small),	Structural Steel,	matid,	5
!************************* End Model Summary ********************
! get the diagonal of the bounding box. Needed later for other things
*get,_xmin,node,,mnloc,x
*get,_ymin,node,,mnloc,y
*get,_zmin,node,,mnloc,z
*get,_xmax,node,,mxloc,x
*get,_ymax,node,,mxloc,y
*get,_zmax,node,,mxloc,z
_ASMDIAG=(_xmax-_xmin)*(_xmax-_xmin)+(_ymax-_ymin)*(_ymax-_ymin)+(_zmax-_zmin)*(_zmax-_zmin)
_ASMDIAG=SQRT(_ASMDIAG)
/wb,contact,start          !  starting to send contact
/wb,contact,end            !  done creating contacts
/golist
/wb,load,start             !  starting to send loads
/com,*********** Fixed Supports ***********
CMBLOCK,_FIXEDSU,NODE,       16
(8i10)
        48        53        54        55        56        57        77        78
        79       109       110       111       127       128       129       130

cmsel,s,_FIXEDSU
d,all,all
nsel,all
/com,*********** Define Force Using Surface Effect Elements ***********
local,12,0,0.,0.,0.,0.,0.,0.
csys,0
et,6,156
mat,6
keyop,6,5,1         !  No orientation node
eblock,10,,,2
(15i9)
      283        6        6        6       12       26       62
      284        6        6        6       12      114      122
-1
esel,s,type,,6
keyop,6,2,1                ! Apply load in local coordinate system
keyop,6,7,1                ! Use original area so load is constant in large deformation
esel,all
/com,*********** Define Force Using Surface Effect Elements ***********
local,13,0,0.,0.,0.,0.,0.,0.
csys,0
et,7,156
mat,7
keyop,7,5,1         !  No orientation node
eblock,10,,,2
(15i9)
      285        7        7        7       13       26       62
      286        7        7        7       13      114      122
-1
esel,s,type,,7
keyop,7,2,1                ! Apply load in local coordinate system
keyop,7,7,1                ! Use original area so load is constant in large deformation
esel,all
/gst,on,on
fini
*get,_numnode,node,0,count
*get,_numelem,elem,0,count
*get, _MAXELEMNUM, elem, 0, NUM, MAX
*get, _MAXNODENUM, node, 0, NUM, MAX
*get, _MAXELEMTYPE, etyp, 0, NUM, MAX
*get, _MAXREALCONST, rcon, 0, NUM, MAX
/go
/wb,load,end               !  done creating loads
/com,--- Number of total nodes = %_numnode%
/com,--- Number of contact elements = 4
/com,--- Number of spring elements = 0
/com,--- Number of bearing elements = 0
/com,--- Number of solid elements = 282
/com,--- Number of condensed parts = 0
/com,--- Number of total elements = %_numelem%
*get,_wallbsol,active,,time,wall
/com,****************************************************************************
/com,*************************    SOLUTION       ********************************
/com,****************************************************************************
/solu
antype,0                   ! static analysis
_thickRatio=  0     ! Ratio of thick parts in the model
eqsl,sparse,,,,,1
cntr,print,1               ! print out contact info and also make no initial contact an error
nldiag,cont,iter           ! print out contact info each equilibrium iteration
rescontrol,,none                 ! Do not keep any restart files
/com,****************************************************
/com,******************* SOLVE FOR LS 1 OF 1 ****************
esel,s,type,,6
nsle
sfe,all,1,pres,1,-339912.254984697
sfe,all,2,pres,1,0.
sfe,all,3,pres,1,0.
esel,s,type,,7
nsle
sfe,all,1,pres,1,0.
sfe,all,2,pres,1,0.
sfe,all,3,pres,1,-8662.39181918187
nsel,all
esel,all
/nopr
/gopr
nsub,1,1,1
time,1.
outres,erase
outres,all,none
outres,nsol,all,
outres,rsol,all
outres,eangl,all
outres,etmp,all
outres,veng,all
outres,strs,all,
outres,epel,all,
outres,eppl,all,
outres,cont,all,
/nopr
esel,s,type,,1
esel,a,type,,2,5
cm,_elmisc,elem
esel,all
/gopr
outres,misc,all,_elmisc
! *********** WB SOLVE COMMAND ***********
! check interactive state
*get,ANSINTER_,active,,int
*if,ANSINTER_,ne,0,then
/eof
*endif
solve
/com *************** Write FE CONNECTORS ********* 
CEWRITE,file,ce,,INTE
/com,****************************************************
/com,*************** FINISHED SOLVE FOR LS 1 *************
*get,_wallasol,active,,time,wall
/nopr
*get,_numnode,node,0,count
*get,_numelem,elem,0,count
*get, _MAXELEMNUM, elem, 0, NUM, MAX
*get, _MAXNODENUM, node, 0, NUM, MAX,,,INTERNAL
*get, _MAXELEMTYPE, etyp, 0, NUM, MAX
*get, _MAXREALCONST, rcon, 0, NUM, MAX
*get,_NSOLTHREADS,active,0,ntfs
*get,_NSOLPROCESSES,active,0,npfs
/gopr
/post1
xmlo,ENCODING,ISO-8859-1
xmlo,parm
/xml,parm,xml
fini
/gopr
*get,_walldone,active,,time,wall
_preptime=(_wallbsol-_wallstrt)*3600
_solvtime=(_wallasol-_wallbsol)*3600
_posttime=(_walldone-_wallasol)*3600
_totaltim=(_walldone-_wallstrt)*3600
*get,_dlbratio,active,0,solu,dlbr
*get,_combtime,active,0,solu,comb
*get,_ssmode,active,0,solu,ssmm
*get,_ndofs,active,0,solu,ndof
/com,--- Total number of nodes = %_numnode%
/com,--- Total number of elements = %_numelem%
/com,--- Element load balance ratio = %_dlbratio%
/com,--- Time to combine distributed files = %_combtime%
/com,--- Sparse memory mode = %_ssmode%
/com,--- Number of DOF = %_ndofs%
/wb,file,end               ! done with WB generated input
