/batch
/config,noeldb,1     ! force off writing results to database
*get,_wallstrt,active,,time,wall
! ANSYS input file written by Workbench version 2023 R2
! File used for geometry attach: E:\GitHub_repos\FEA_projects\HW1 (3)\HW1\222_files\dp0\SYS\DM\SYS.scdoc
/title,222--Steady-State Thermal (A5)
! ****** Begin Custom Load Command Snippet ******
/COM, ACT Extensions:
/COM,     LSDYNA, 2023.2
/COM,     5f463412-bd3e-484b-87e7-cbc0a665e474, wbex
/COM,/COM,     ANSYSMotion, 2023.2
/COM,     20180725-3f81-49eb-9f31-41364844c769, wbex
/COM,
! ****** End   Custom Load Command Snippet ******
*DIM,_wb_ProjectScratch_dir,string,248
_wb_ProjectScratch_dir(1) = 'E:\GitHub_repos\FEA_projects\HW1 (3)\HW1\_ProjectScratch\ScrB3F2\'
*DIM,_wb_SolverFiles_dir,string,248
_wb_SolverFiles_dir(1) = 'E:\GitHub_repos\FEA_projects\HW1 (3)\HW1\222_files\dp0\SYS\MECH\'
*DIM,_wb_userfiles_dir,string,248
_wb_userfiles_dir(1) = 'E:\GitHub_repos\FEA_projects\HW1 (3)\HW1\222_files\user_files\'
/com,--- Data in consistent MKS units. See Solving Units in the help system for more information.
/units,MKS
/nopr
/wb,file,start              !  signify a WB generated input file
/prep7
! Turn off shape checking because checks already performed inside WB mesher.
! See help system for more information.
SHPP,OFF,,NOWARN
/nolist
etcon,set             ! allow ANSYS to choose best KEYOP's for 180x elements, resets any applicable keyopt to MAPDL defaults
/com,*********** Nodes for the whole assembly ***********
nblock,3,,11256
(1i9,3e20.9e3)
        1    -5.407480119E-02     3.868337422E-02     1.315165043E-01
        2    -5.825530965E-02     3.693297044E-02     1.315165043E-01
        3    -5.407480119E-02     3.868337422E-02     1.230330086E-01
        4    -5.825530965E-02     3.693297044E-02     1.230330086E-01
        5    -5.407480119E-02     3.868337422E-02     1.145495129E-01
        6    -5.825530965E-02     3.693297044E-02     1.145495129E-01
        7    -5.407480119E-02     3.868337422E-02     1.060660172E-01
        8    -5.825530965E-02     3.693297044E-02     1.060660172E-01
        9    -5.346541703E-02     3.868337422E-02     9.210882521E-02
       10    -5.763001739E-02     3.693297044E-02     9.174446989E-02
       11    -5.164190232E-02     3.868337422E-02     7.825785590E-02
       12    -5.575889947E-02     3.693297044E-02     7.753191822E-02
       13    -4.861813512E-02     3.868337422E-02     6.461852349E-02
       14    -5.265619622E-02     3.693297044E-02     6.353652828E-02
       15    -4.441712813E-02     3.868337422E-02     5.129463153E-02
       16    -4.834552108E-02     3.693297044E-02     4.986481342E-02
       17    -3.907085353E-02     3.868337422E-02     3.838758289E-02
       18    -4.285968090E-02     3.693297044E-02     3.662082367E-02
       19    -3.261999971E-02     3.868337422E-02     2.599560800E-02
       20    -3.624042624E-02     3.693297044E-02     2.390535376E-02
! ... 10214 like lines cut
/wb,elem,start            !  set before creation of elements
/com,*********** Elements for Body 1 "SYS\Solid" ***********
et,1,279
eblock,19,solid,,754
(19i9)
        1        1        1        1        0        0        0        0       20        0        1        1        2      164      163       52       51      193      192
     1405     1412     1928     1408     1582     1583     2005     1585     1407     1411     1932     1929
        1        1        1        1        0        0        0        0       20        0        2        1      163      164        2        3      142      143        4
     1408     1928     1412     1405     1416     1860     1419     1414     1406     1861     1864     1410
        1        1        1        1        0        0        0        0       20        0        3        3      142      143        4        5      121      122        6
     1416     1860     1419     1414     1423     1787     1426     1421     1415     1788     1792     1418
        1        1        1        1        0        0        0        0       20        0        4        5      121      122        6        7      201      200        8
     1423     1787     1426     1421     1430     2023     1433     1428     1422     1789     1793     1425
        1        1        1        1        0        0        0        0       20        0        5        7      201      200        8        9      507      508       10
     1430     2023     1433     1428     1437     2842     1440     1435     1429     2028     2025     1432
        1        1        1        1        0        0        0        0       20        0        6        9      507      508       10       11      486      487       12
     1437     2842     1440     1435     1444     2781     1447     1442     1436     2782     2785     1439
        1        1        1        1        0        0        0        0       20        0        7       11      486      487       12       13      465      466       14
     1444     2781     1447     1442     1451     2715     1454     1449     1443     2716     2719     1446
        1        1        1        1        0        0        0        0       20        0        8       13      465      466       14       15      444      445       16
     1451     2715     1454     1449     1458     2649     1461     1456     1450     2650     2653     1453
        1        1        1        1        0        0        0        0       20        0        9       15      444      445       16       17      423      424       18
     1458     2649     1461     1456     1465     2583     1468     1463     1457     2584     2587     1460
        1        1        1        1        0        0        0        0       20        0       10       17      423      424       18       19      402      403       20
     1465     2583     1468     1463     1472     2517     1475     1470     1464     2518     2521     1467
! ... 1489 like lines cut
!Material Id = {8C17046B-D6EB-4391-9199-C09F70FB7293}
/com,*********** Elements for Body 2 "SYS\Solid" ***********
et,2,279
eblock,19,solid,,816
(19i9)
        2        2        2        2        0        0        0        0       20        0      755     5078     5167     5168     5079     5113     5253     5252     5114
     6868     7118     6871     6866     6958     7291     6961     6957     6867     7120     7123     6870
        2        2        2        2        0        0        0        0       20        0      756     5051     5198     5199     5052     5078     5167     5168     5079
     6780     7189     6783     6778     6868     7118     6871     6866     6779     7119     7122     6782
        2        2        2        2        0        0        0        0       20        0      757     5024     5229     5230     5025     5051     5198     5199     5052
     6686     7252     6690     6683     6780     7189     6783     6778     6684     7190     7192     6688
        2        2        2        2        0        0        0        0       20        0      758     5024     5025     5230     5229     5126     5125     5297     5296
     6683     6690     7252     6686     6988     6989     7353     6993     6685     6689     7255     7253
        2        2        2        2        0        0        0        0       20        0      759     5125     5297     5296     5126     5473     5736     5737     5472
     6989     7353     6993     6988     7941     8520     7938     7937     6991     7356     7354     6994
        2        2        2        2        0        0        0        0       20        0      760     5445     5706     5705     5446     5472     5737     5736     5473
     7857     8479     7861     7855     7938     8520     7941     7937     7856     8482     8480     7859
        2        2        2        2        0        0        0        0       20        0      761     5418     5675     5674     5419     5445     5706     5705     5446
     7769     8416     7773     7767     7857     8479     7861     7855     7768     8419     8417     7771
        2        2        2        2        0        0        0        0       20        0      762     5391     5644     5643     5392     5418     5675     5674     5419
     7681     8353     7685     7679     7769     8416     7773     7767     7680     8356     8354     7683
        2        2        2        2        0        0        0        0       20        0      763     5364     5613     5612     5365     5391     5644     5643     5392
     7593     8290     7597     7591     7681     8353     7685     7679     7592     8293     8291     7595
        2        2        2        2        0        0        0        0       20        0      764     5337     5582     5581     5338     5364     5613     5612     5365
     7505     8227     7509     7503     7593     8290     7597     7591     7504     8230     8228     7507
! ... 1613 like lines cut
!Material Id = {BC33550E-2959-4AA3-B462-E78E408CE808}
/wb,elem,end               !  done creating elements
/com,*********** Send User Defined Coordinate System(s) ***********
csys,0
toffst,273.15,  ! Temperature offset from absolute zero
/wb,mat,start              !  starting to send materials
/com,*********** Send Materials ***********
Temperature = 'TEMP' ! Temperature
MP,DENS,1,7200,	! kg m^-3
MP,ALPX,1,1.1e-05,	! C^-1
MP,C,1,447,	! J kg^-1 C^-1
MP,KXX,1,52,	! W m^-1 C^-1
MP,RSVX,1,9.6e-08,	! kg m^3 A^-2 s^-3
MP,EX,1,110000000000,	! Pa
MP,NUXY,1,0.28,
MP,MURX,1,10000,
MP,UVID,1,db956552-6837-437b-b8e2-923ea662f055
MP,UMID,1,f60bcced-8a07-4217-aedb-972d67ace671

MP,KXX,2,0.2,	! W m^-1 C^-1
MP,UVID,2,8bab5abd-f594-4e81-a47d-1ad5aa50ee11

/wb,mat,end                !  done sending materials
!************************* Model Summary ********************
!SYS\Solid,	Gray Cast Iron,	matid,	1
!SYS\Solid,	Foam Insulation,	matid,	2
!************************* End Model Summary ********************
! get the diagonal of the bounding box. Needed later for other things
*get,_xmin,node,,mnloc,x
*get,_ymin,node,,mnloc,y
*get,_zmin,node,,mnloc,z
*get,_xmax,node,,mxloc,x
*get,_ymax,node,,mxloc,y
*get,_zmax,node,,mxloc,z
_ASMDIAG=(_xmax-_xmin)*(_xmax-_xmin)+(_ymax-_ymin)*(_ymax-_ymin)+(_zmax-_zmin)*(_zmax-_zmin)
_ASMDIAG=SQRT(_ASMDIAG)
/wb,contact,start          !  starting to send contact
/com,*********** Create Contact "Contact Region" ***********
/com,            Real Constant Set For Above Contact Is 4 & 3 
*set,tid,4
*set,cid,3
r,tid
r,cid
et,tid,170
et,cid,174
eblock,10,,,728
(15i9)
     4437        4        4        4        0      296      298      299      215     2260     2265     2071     2070
     4438        4        4        4        0      269      301      302      297     2207     2269     2262     2206
     4439        4        4        4        0      242      215      299      300     2069     2071     2267     2152
     4440        4        4        4        0      269      242      300      301     2151     2152     2268     2207
     4441        4        4        4        0      215      216      330      296     2068     2074     2261     2070
     4442        4        4        4        0      242      243      216      215     2150     2073     2068     2069
     4443        4        4        4        0      269      270      243      242     2205     2154     2150     2151
     4444        4        4        4        0      297      331      270      269     2263     2209     2205     2206
     4445        4        4        4        0      216      217      329      330     2072     2077     2301     2074
     4446        4        4        4        0      243      244      217      216     2153     2076     2072     2073
     4447        4        4        4        0      270      271      244      243     2208     2156     2153     2154
     4448        4        4        4        0      331      332      271      270     2302     2211     2208     2209
     4449        4        4        4        0      217      218      328      329     2075     2080     2300     2077
     4450        4        4        4        0      244      245      218      217     2155     2079     2075     2076
     4451        4        4        4        0      271      272      245      244     2210     2158     2155     2156
     4452        4        4        4        0      332      333      272      271     2304     2213     2210     2211
     4453        4        4        4        0      218      219      327      328     2078     2083     2299     2080
     4454        4        4        4        0      245      246      219      218     2157     2082     2078     2079
     4455        4        4        4        0      272      273      246      245     2212     2160     2157     2158
     4456        4        4        4        0      333      334      273      272     2306     2215     2212     2213
! ... 709 like lines cut
eblock,10,,,728
(15i9)
     5165        3        3        3        0      296      298      299      215     2260     2265     2071     2070
     5166        3        3        3        0      269      301      302      297     2207     2269     2262     2206
     5167        3        3        3        0      242      215      299      300     2069     2071     2267     2152
     5168        3        3        3        0      269      242      300      301     2151     2152     2268     2207
     5169        3        3        3        0      215      216      330      296     2068     2074     2261     2070
     5170        3        3        3        0      242      243      216      215     2150     2073     2068     2069
     5171        3        3        3        0      269      270      243      242     2205     2154     2150     2151
     5172        3        3        3        0      297      331      270      269     2263     2209     2205     2206
     5173        3        3        3        0      216      217      329      330     2072     2077     2301     2074
     5174        3        3        3        0      243      244      217      216     2153     2076     2072     2073
     5175        3        3        3        0      270      271      244      243     2208     2156     2153     2154
     5176        3        3        3        0      331      332      271      270     2302     2211     2208     2209
     5177        3        3        3        0      217      218      328      329     2075     2080     2300     2077
     5178        3        3        3        0      244      245      218      217     2155     2079     2075     2076
     5179        3        3        3        0      271      272      245      244     2210     2158     2155     2156
     5180        3        3        3        0      332      333      272      271     2304     2213     2210     2211
     5181        3        3        3        0      218      219      327      328     2078     2083     2299     2080
     5182        3        3        3        0      245      246      219      218     2157     2082     2078     2079
     5183        3        3        3        0      272      273      246      245     2212     2160     2157     2158
     5184        3        3        3        0      333      334      273      272     2306     2215     2212     2213
! ... 709 like lines cut
eblock,10,,,672
(15i9)
     5893        3        4        3        0     5058     5088     5087     5085     6803     6896     6889     6802
     5894        3        4        3        0     5086     5091     5090     5004     6892     6903     6601     6600
     5895        3        4        3        0     5058     5031     5089     5088     6714     6715     6899     6803
     5896        3        4        3        0     5031     5004     5090     5089     6599     6601     6901     6715
     5897        3        4        3        0     5004     5005     5143     5086     6598     6605     6893     6600
     5898        3        4        3        0     5031     5032     5005     5004     6713     6604     6598     6599
     5899        3        4        3        0     5058     5059     5032     5031     6801     6718     6713     6714
     5900        3        4        3        0     5085     5094     5059     5058     6890     6806     6801     6802
     5901        3        4        3        0     5005     5006     5142     5143     6603     6609     7043     6605
     5902        3        4        3        0     5032     5033     5006     5005     6717     6608     6603     6604
     5903        3        4        3        0     5059     5060     5033     5032     6805     6721     6717     6718
     5904        3        4        3        0     5094     5095     5060     5059     6915     6809     6805     6806
     5905        3        4        3        0     5006     5007     5141     5142     6607     6613     7040     6609
     5906        3        4        3        0     5033     5034     5007     5006     6720     6612     6607     6608
     5907        3        4        3        0     5060     5061     5034     5033     6808     6724     6720     6721
     5908        3        4        3        0     5095     5096     5061     5060     6917     6812     6808     6809
     5909        3        4        3        0     5007     5008     5140     5141     6611     6617     7036     6613
     5910        3        4        3        0     5034     5035     5008     5007     6723     6616     6611     6612
     5911        3        4        3        0     5061     5062     5035     5034     6811     6727     6723     6724
     5912        3        4        3        0     5096     5097     5062     5061     6919     6815     6811     6812
! ... 653 like lines cut
eblock,10,,,672
(15i9)
     6565        4        3        4        0     5058     5088     5087     5085     6803     6896     6889     6802
     6566        4        3        4        0     5086     5091     5090     5004     6892     6903     6601     6600
     6567        4        3        4        0     5058     5031     5089     5088     6714     6715     6899     6803
     6568        4        3        4        0     5031     5004     5090     5089     6599     6601     6901     6715
     6569        4        3        4        0     5004     5005     5143     5086     6598     6605     6893     6600
     6570        4        3        4        0     5031     5032     5005     5004     6713     6604     6598     6599
     6571        4        3        4        0     5058     5059     5032     5031     6801     6718     6713     6714
     6572        4        3        4        0     5085     5094     5059     5058     6890     6806     6801     6802
     6573        4        3        4        0     5005     5006     5142     5143     6603     6609     7043     6605
     6574        4        3        4        0     5032     5033     5006     5005     6717     6608     6603     6604
     6575        4        3        4        0     5059     5060     5033     5032     6805     6721     6717     6718
     6576        4        3        4        0     5094     5095     5060     5059     6915     6809     6805     6806
     6577        4        3        4        0     5006     5007     5141     5142     6607     6613     7040     6609
     6578        4        3        4        0     5033     5034     5007     5006     6720     6612     6607     6608
     6579        4        3        4        0     5060     5061     5034     5033     6808     6724     6720     6721
     6580        4        3        4        0     5095     5096     5061     5060     6917     6812     6808     6809
     6581        4        3        4        0     5007     5008     5140     5141     6611     6617     7036     6613
     6582        4        3        4        0     5034     5035     5008     5007     6723     6616     6611     6612
     6583        4        3        4        0     5061     5062     5035     5034     6811     6727     6723     6724
     6584        4        3        4        0     5096     5097     5062     5061     6919     6815     6811     6812
! ... 653 like lines cut
keyo,cid,8,2               ! auto create asymmetric contact (from Program Controlled setting)
keyo,cid,10,0              ! adjust contact stiffness each NR iteration (from Program Controlled setting)
keyo,cid,12,5              ! bonded always
keyo,cid,18,1              ! small sliding turned on by application
keyo,cid,2,0               ! augmented Lagrange (from Program Controlled setting)
keyo,cid,4,0               ! on Gauss point (from Program Controlled setting)
keyo,cid,9,1               ! ignore initial gaps/penetration
keyo,cid,7,0               ! No Prediction
rmod,tid,3,10.      ! FKN
rmod,tid,5,0.       ! ICONT
rmod,tid,6,0.       ! PINB
rmod,tid,10,0.      ! CNOF
rmod,tid,12,0.      ! FKT
rmod,tid,36,32      ! WB DSID
rmod,cid,3,10.      ! FKN
rmod,cid,5,0.       ! ICONT
rmod,cid,6,0.       ! PINB
rmod,cid,10,0.      ! CNOF
rmod,cid,12,0.      ! FKT
rmod,cid,36,32      ! WB DSID
*set,_maxkxx,520000.
rmod,cid,14,_maxkxx/_ASMDIAG         ! TCC, Divide by Length since Traction Based
rmod,tid,14,_maxkxx/_ASMDIAG      ! TCC, Divide by Length since Traction Based
keyo,cid,1,2     ! Pure thermal contact
nsel,all
esel,all
/wb,contact,end            !  done creating contacts
/golist
/wb,load,start             !  starting to send loads
fcum,add                   ! add nodal forces up (needed in case have loads on the same edge,vertex)
fcum                       ! reset default on fcum command since done sending WB F loads
/com,*********** Create "Convection" ***********
et,5,152
eblock,10,,,768
(15i9)
     7237        5        5        5        0     6234     6233     6441     6348     9771     9772    10076     9774
     7238        5        5        5        0     6410     6443     4944     4974    10201     6447     6445     6539
     7239        5        5        5        0     6379     6348     6441     6442    10075    10076    10232    10139
     7240        5        5        5        0     6410     6379     6442     6443    10138    10139    10233    10201
     7241        5        5        5        0     6348     6349     6235     6234    10074     9776     9773     9774
     7242        5        5        5        0     6379     6380     6349     6348    10137    10078    10074    10075
     7243        5        5        5        0     6410     6411     6380     6379    10200    10141    10137    10138
     7244        5        5        5        0     4974     4975     6411     6410     6537     6541    10200     6539
     7245        5        5        5        0     6349     6350     6236     6235    10077     9778     9775     9776
     7246        5        5        5        0     6380     6381     6350     6349    10140    10080    10077    10078
     7247        5        5        5        0     6411     6412     6381     6380    10202    10143    10140    10141
     7248        5        5        5        0     4975     4973     6412     6411     6534     6536    10202     6541
     7249        5        5        5        0     6350     6351     6237     6236    10079     9780     9777     9778
     7250        5        5        5        0     6381     6382     6351     6350    10142    10082    10079    10080
     7251        5        5        5        0     6412     6413     6382     6381    10203    10145    10142    10143
     7252        5        5        5        0     4973     4972     6413     6412     6531     6533    10203     6536
     7253        5        5        5        0     6351     6352     6238     6237    10081     9782     9779     9780
     7254        5        5        5        0     6382     6383     6352     6351    10144    10084    10081    10082
     7255        5        5        5        0     6413     6414     6383     6382    10204    10147    10144    10145
     7256        5        5        5        0     4972     4971     6414     6413     6528     6530    10204     6533
! ... 749 like lines cut
esel,s,type,,5
keyop,5,8,2.
keyop,5,13,0
*DIM,_loadvari51,TABLE,2,1,1,TIME,
! Time values
_loadvari51(1,0,1) = 0.
_loadvari51(2,0,1) = 1.
! Load values
_loadvari51(1,1,1) = 20.
_loadvari51(2,1,1) = 20.

/com,*********** Create "Convection 2" ***********
et,6,152
eblock,10,,,572
(15i9)
     8005        6        6        6        0     1297     1318      982     1002     4753     4048     4046     4111
     8006        6        6        6        0       83      103     1320     1255     1675     1716     4618     1676
     8007        6        6        6        0     1297     1276     1319     1318     4685     4686     4799     4753
     8008        6        6        6        0     1276     1255     1320     1319     4617     4618     4801     4686
     8009        6        6        6        0     1255     1256       84       83     4616     1678     1674     1676
     8010        6        6        6        0     1276     1277     1256     1255     4684     4621     4616     4617
     8011        6        6        6        0     1297     1298     1277     1276     4752     4689     4684     4685
     8012        6        6        6        0     1002     1001     1298     1297     4107     4109     4752     4111
     8013        6        6        6        0     1256     1257       85       84     4620     1680     1677     1678
     8014        6        6        6        0     1277     1278     1257     1256     4688     4624     4620     4621
     8015        6        6        6        0     1298     1299     1278     1277     4755     4692     4688     4689
     8016        6        6        6        0     1001     1000     1299     1298     4104     4106     4755     4109
     8017        6        6        6        0     1257     1258       86       85     4623     1682     1679     1680
     8018        6        6        6        0     1278     1279     1258     1257     4691     4627     4623     4624
     8019        6        6        6        0     1299     1300     1279     1278     4757     4695     4691     4692
     8020        6        6        6        0     1000      999     1300     1299     4099     4103     4757     4106
     8021        6        6        6        0     1258     1259       87       86     4626     1684     1681     1682
     8022        6        6        6        0     1279     1280     1259     1258     4694     4632     4626     4627
     8023        6        6        6        0     1300     1301     1280     1279     4759     4700     4694     4695
     8024        6        6        6        0      999      998     1301     1300     4096     4098     4759     4103
! ... 553 like lines cut
esel,s,type,,6
keyop,6,8,2.
keyop,6,13,0
*DIM,_loadvari53,TABLE,1,1,1,TIME,
! Time values
_loadvari53(1,0,1) = 0.
! Load values
_loadvari53(1,1,1) = 155.

esel,all
/com,***************** Define Uniform Initial temperature ***************
tunif,22.
/gst,on,on
fini
*get,_numnode,node,0,count
*get,_numelem,elem,0,count
*get, _MAXELEMNUM, elem, 0, NUM, MAX
*get, _MAXNODENUM, node, 0, NUM, MAX
*get, _MAXELEMTYPE, etyp, 0, NUM, MAX
*get, _MAXREALCONST, rcon, 0, NUM, MAX
/go
/wb,load,end               !  done creating loads
/com,--- Number of total nodes = %_numnode%
/com,--- Number of contact elements = 4140
/com,--- Number of spring elements = 0
/com,--- Number of bearing elements = 0
/com,--- Number of solid elements = 1570
/com,--- Number of condensed parts = 0
/com,--- Number of total elements = %_numelem%
*get,_wallbsol,active,,time,wall
/com,****************************************************************************
/com,*************************    SOLUTION       ********************************
/com,****************************************************************************
/solu
antype,0                   ! static analysis
!eqsl,sparse               ! using sparse solver which is default so no eqsl command needed
cntr,print,1               ! print out contact info and also make no initial contact an error
cncheck,dmp		!	Enable program controlled contact splitting for distributed memory parallel run
rescontrol,,none                 ! Do not keep any restart files
dmpoption,emat,no             ! Don't combine emat file for DANSYS
dmpoption,esav,no             ! Don't combine esav file for DANSYS
/com,****************************************************
/com,******************* SOLVE FOR LS 1 OF 1 ****************
esel,s,type,,5
nsle
sf,all,conv,3.8,%_loadvari51%
esel,s,type,,6
nsle
sf,all,conv,20.,%_loadvari53%
nsel,all
esel,all
/nopr
/gopr
autots,on
nsub,1,10,1
time,1.
outres,erase
outres,all,none
outres,nsol,all
outres,rsol,all
outres,eangl,all
outres,veng,all
outres,fflux,all
outres,cont,all
/nopr
esel,s,type,,5
esel,a,type,,6
cm,_elmisc,elem
esel,all
/gopr
outres,misc,all,_elmisc
cnvtol,heat,,.001,,1.e-006    ! Program Controlled. Set MINREF equivalent of 1e-6 Watts
! *********** WB SOLVE COMMAND ***********
! check interactive state
*get,ANSINTER_,active,,int
*if,ANSINTER_,ne,0,then
/eof
*endif
solve
/com *************** Write FE CONNECTORS ********* 
CEWRITE,file,ce,,INTE
/com,****************************************************
/com,*************** FINISHED SOLVE FOR LS 1 *************
*get,_wallasol,active,,time,wall
/post1
xmlo,ENCODING,ISO-8859-1
xmlo,parm
/xml,parm,xml
fini
/gopr
*get,_walldone,active,,time,wall
_preptime=(_wallbsol-_wallstrt)*3600
_solvtime=(_wallasol-_wallbsol)*3600
_posttime=(_walldone-_wallasol)*3600
_totaltim=(_walldone-_wallstrt)*3600
*get,_dlbratio,active,0,solu,dlbr
*get,_combtime,active,0,solu,comb
*get,_ssmode,active,0,solu,ssmm
*get,_ndofs,active,0,solu,ndof
/fclean				!clean distributed files
/com,--- Total number of nodes = %_numnode%
/com,--- Total number of elements = %_numelem%
/com,--- Element load balance ratio = %_dlbratio%
/com,--- Time to combine distributed files = %_combtime%
/com,--- Sparse memory mode = %_ssmode%
/com,--- Number of DOF = %_ndofs%
/wb,file,end               ! done with WB generated input
