/batch
/config,noeldb,1     ! force off writing results to database
*get,_wallstrt,active,,time,wall
! ANSYS input file written by Workbench version 2023 R2
! File used for geometry attach: E:\GitHub_repos\FEA_projects\HW1 (3)\HW1\111_files\dp0\SYS\DM\SYS.scdoc
/title,111--Steady-State Thermal (B5)
! ****** Begin Custom Load Command Snippet ******
/COM, ACT Extensions:
/COM,     LSDYNA, 2023.2
/COM,     5f463412-bd3e-484b-87e7-cbc0a665e474, wbex
/COM,/COM,     ANSYSMotion, 2023.2
/COM,     20180725-3f81-49eb-9f31-41364844c769, wbex
/COM,
! ****** End   Custom Load Command Snippet ******
*DIM,_wb_ProjectScratch_dir,string,248
_wb_ProjectScratch_dir(1) = 'E:\GitHub_repos\FEA_projects\HW1 (3)\HW1\_ProjectScratch\Scr2F99\'
*DIM,_wb_SolverFiles_dir,string,248
_wb_SolverFiles_dir(1) = 'E:\GitHub_repos\FEA_projects\HW1 (3)\HW1\111_files\dp0\SYS\MECH\'
*DIM,_wb_userfiles_dir,string,248
_wb_userfiles_dir(1) = 'E:\GitHub_repos\FEA_projects\HW1 (3)\HW1\111_files\user_files\'
/com,--- Data in consistent MKS units. See Solving Units in the help system for more information.
/units,MKS
/nopr
/wb,file,start              !  signify a WB generated input file
/prep7
! Turn off shape checking because checks already performed inside WB mesher.
! See help system for more information.
SHPP,OFF,,NOWARN
/nolist
etcon,set             ! allow ANSYS to choose best KEYOP's for 180x elements, resets any applicable keyopt to MAPDL defaults
/com,*********** Nodes for the whole assembly ***********
nblock,3,,5467
(1i9,3e20.9e3)
        1    -8.265921100E-05    -9.356026087E-03    -1.400000000E-01
        2     2.824437228E-03    -1.830314894E-02    -1.400000000E-01
        3     7.528218075E-03    -2.645033635E-02    -1.400000000E-01
        4     1.382310554E-02    -3.344151715E-02    -1.400000000E-01
        5     2.143398282E-02    -3.897114317E-02    -1.400000000E-01
        6     3.002821808E-02    -4.279754323E-02    -1.400000000E-01
        7     3.923020197E-02    -4.475348529E-02    -1.400000000E-01
        8     4.863776367E-02    -4.475348529E-02    -1.400000000E-01
        9     5.783974757E-02    -4.279754323E-02    -1.400000000E-01
       10     6.643398282E-02    -3.897114317E-02    -1.400000000E-01
       11     7.404486011E-02    -3.344151715E-02    -1.400000000E-01
       12     8.033974757E-02    -2.645033635E-02    -1.400000000E-01
       13     8.504352842E-02    -1.830314894E-02    -1.400000000E-01
       14     8.795062486E-02    -9.356026087E-03    -1.400000000E-01
       15     8.893398282E-02    -2.775557562E-17    -1.400000000E-01
       16     8.795062486E-02     9.356026087E-03    -1.400000000E-01
       17     8.504352842E-02     1.830314894E-02    -1.400000000E-01
       18     8.033974757E-02     2.645033635E-02    -1.400000000E-01
       19     7.404486011E-02     3.344151715E-02    -1.400000000E-01
       20     6.643398282E-02     3.897114317E-02    -1.400000000E-01
! ... 4951 like lines cut
/wb,elem,start            !  set before creation of elements
/com,*********** Elements for Body 1 "CurvedPipe\Solid" ***********
et,1,279
eblock,19,solid,,780
(19i9)
        1        1        1        1        0        0        0        0       20        0        1      115      190      191      119      144      260      259      118
     1769     1991     1784     1767     1852     2132     1781     1778     1768     1993     1996     1777
        1        1        1        1        0        0        0        0       20        0        2       94      219      220      120      115      190      191      119
     1699     2052     1788     1698     1769     1991     1784     1767     1697     1992     1994     1782
        1        1        1        1        0        0        0        0       20        0        3       73      248      249      121       94      219      220      120
     1629     2111     1792     1627     1699     2052     1788     1698     1626     2053     2054     1786
        1        1        1        1        0        0        0        0       20        0        4       73      121      249      248      145      122      312      311
     1627     1792     2111     1629     1794     1797     2206     1854     1628     1790     2114     2112
        1        1        1        1        0        0        0        0       20        0        5      122      312      311      145      470      729      730      469
     1797     2206     1854     1794     2746     3333     2742     2741     1798     2208     2207     1855
        1        1        1        1        0        0        0        0       20        0        6      448      701      700      449      469      730      729      470
     2682     3289     2687     2680     2742     3333     2746     2741     2681     3292     3290     2684
        1        1        1        1        0        0        0        0       20        0        7      427      672      671      428      448      701      700      449
     2612     3230     2617     2610     2682     3289     2687     2680     2611     3233     3231     2614
        1        1        1        1        0        0        0        0       20        0        8      406      643      642      407      427      672      671      428
     2542     3171     2547     2540     2612     3230     2617     2610     2541     3174     3172     2544
        1        1        1        1        0        0        0        0       20        0        9      385      614      613      386      406      643      642      407
     2472     3112     2477     2470     2542     3171     2547     2540     2471     3115     3113     2474
        1        1        1        1        0        0        0        0       20        0       10      364      585      584      365      385      614      613      386
     2402     3053     2407     2400     2472     3112     2477     2470     2401     3056     3054     2404
! ... 1541 like lines cut
!Material Id = {AAE19CB5-AB7B-4DE9-96A6-FFBB947BF531}
/wb,elem,end               !  done creating elements
/com,*********** Send User Defined Coordinate System(s) ***********
csys,0
toffst,273.15,  ! Temperature offset from absolute zero
/wb,mat,start              !  starting to send materials
/com,*********** Send Materials ***********
Temperature = 'TEMP' ! Temperature
MP,DENS,1,7200,	! kg m^-3
MP,ALPX,1,1.1e-05,	! C^-1
MP,C,1,447,	! J kg^-1 C^-1
MP,KXX,1,52,	! W m^-1 C^-1
MP,RSVX,1,9.6e-08,	! kg m^3 A^-2 s^-3
MP,EX,1,110000000000,	! Pa
MP,NUXY,1,0.28,
MP,MURX,1,10000,
MP,UVID,1,c78c474e-3295-45bc-8756-a03cf090ac95
MP,UMID,1,f60bcced-8a07-4217-aedb-972d67ace671

/wb,mat,end                !  done sending materials
!************************* Model Summary ********************
!CurvedPipe\Solid,	Gray Cast Iron,	matid,	1
!************************* End Model Summary ********************
! get the diagonal of the bounding box. Needed later for other things
*get,_xmin,node,,mnloc,x
*get,_ymin,node,,mnloc,y
*get,_zmin,node,,mnloc,z
*get,_xmax,node,,mxloc,x
*get,_ymax,node,,mxloc,y
*get,_zmax,node,,mxloc,z
_ASMDIAG=(_xmax-_xmin)*(_xmax-_xmin)+(_ymax-_ymin)*(_ymax-_ymin)+(_zmax-_zmin)*(_zmax-_zmin)
_ASMDIAG=SQRT(_ASMDIAG)
/wb,contact,start          !  starting to send contact
/wb,contact,end            !  done creating contacts
/golist
/wb,load,start             !  starting to send loads
fcum,add                   ! add nodal forces up (needed in case have loads on the same edge,vertex)
fcum                       ! reset default on fcum command since done sending WB F loads
/com,*********** Create "Convection" ***********
et,2,152
eblock,10,,,572
(15i9)
     2193        2        2        2        0       95      119      118      116     1702     1777     1770     1701
     2194        2        2        2        0      117      122      121       53     1773     1790     1542     1541
     2195        2        2        2        0       95       74      120      119     1631     1632     1782     1702
     2196        2        2        2        0       74       53      121      120     1540     1542     1786     1632
     2197        2        2        2        0       53       54      162      117     1539     1546     1774     1541
     2198        2        2        2        0       74       75       54       53     1630     1545     1539     1540
     2199        2        2        2        0       95       96       75       74     1700     1635     1630     1631
     2200        2        2        2        0      116      125       96       95     1771     1705     1700     1701
     2201        2        2        2        0       54       55      161      162     1544     1550     1904     1546
     2202        2        2        2        0       75       76       55       54     1634     1549     1544     1545
     2203        2        2        2        0       96       97       76       75     1704     1638     1634     1635
     2204        2        2        2        0      125      126       97       96     1808     1708     1704     1705
     2205        2        2        2        0       55       56      160      161     1548     1554     1901     1550
     2206        2        2        2        0       76       77       56       55     1637     1553     1548     1549
     2207        2        2        2        0       97       98       77       76     1707     1641     1637     1638
     2208        2        2        2        0      126      127       98       97     1810     1711     1707     1708
     2209        2        2        2        0       56       57      159      160     1552     1558     1898     1554
     2210        2        2        2        0       77       78       57       56     1640     1557     1552     1553
     2211        2        2        2        0       98       99       78       77     1710     1644     1640     1641
     2212        2        2        2        0      127      128       99       98     1812     1714     1710     1711
! ... 553 like lines cut
esel,s,type,,2
keyop,2,8,2.
keyop,2,13,0
/com,*********** Create "Convection 2" ***********
et,3,152
eblock,10,,,780
(15i9)
     2765        3        3        3        0      250      252      253      163     2115     2120     1912     1911
     2766        3        3        3        0      221      255      256      251     2058     2124     2117     2057
     2767        3        3        3        0      192      163      253      254     1910     1912     2122     1999
     2768        3        3        3        0      221      192      254      255     1998     1999     2123     2058
     2769        3        3        3        0      163      164      286      250     1909     1915     2116     1911
     2770        3        3        3        0      192      193      164      163     1997     1914     1909     1910
     2771        3        3        3        0      221      222      193      192     2056     2001     1997     1998
     2772        3        3        3        0      251      287      222      221     2118     2060     2056     2057
     2773        3        3        3        0      164      165      285      286     1913     1918     2158     1915
     2774        3        3        3        0      193      194      165      164     2000     1917     1913     1914
     2775        3        3        3        0      222      223      194      193     2059     2003     2000     2001
     2776        3        3        3        0      287      288      223      222     2159     2062     2059     2060
     2777        3        3        3        0      165      166      284      285     1916     1921     2157     1918
     2778        3        3        3        0      194      195      166      165     2002     1920     1916     1917
     2779        3        3        3        0      223      224      195      194     2061     2005     2002     2003
     2780        3        3        3        0      288      289      224      223     2161     2064     2061     2062
     2781        3        3        3        0      166      167      283      284     1919     1924     2156     1921
     2782        3        3        3        0      195      196      167      166     2004     1923     1919     1920
     2783        3        3        3        0      224      225      196      195     2063     2007     2004     2005
     2784        3        3        3        0      289      290      225      224     2163     2066     2063     2064
! ... 761 like lines cut
esel,s,type,,3
keyop,3,8,2.
keyop,3,13,0
esel,all
/com,***************** Define Uniform Initial temperature ***************
tunif,22.
/gst,on,on
fini
*get,_numnode,node,0,count
*get,_numelem,elem,0,count
*get, _MAXELEMNUM, elem, 0, NUM, MAX
*get, _MAXNODENUM, node, 0, NUM, MAX
*get, _MAXELEMTYPE, etyp, 0, NUM, MAX
*get, _MAXREALCONST, rcon, 0, NUM, MAX
/go
/wb,load,end               !  done creating loads
/com,--- Number of total nodes = %_numnode%
/com,--- Number of contact elements = 1352
/com,--- Number of spring elements = 0
/com,--- Number of bearing elements = 0
/com,--- Number of solid elements = 780
/com,--- Number of condensed parts = 0
/com,--- Number of total elements = %_numelem%
*get,_wallbsol,active,,time,wall
/com,****************************************************************************
/com,*************************    SOLUTION       ********************************
/com,****************************************************************************
/solu
antype,0                   ! static analysis
!eqsl,sparse               ! using sparse solver which is default so no eqsl command needed
cntr,print,1               ! print out contact info and also make no initial contact an error
cncheck,dmp		!	Enable program controlled contact splitting for distributed memory parallel run
rescontrol,,none                 ! Do not keep any restart files
dmpoption,emat,no             ! Don't combine emat file for DANSYS
dmpoption,esav,no             ! Don't combine esav file for DANSYS
/com,****************************************************
/com,******************* SOLVE FOR LS 1 OF 1 ****************
esel,s,type,,2
nsle
sf,all,conv,20.,155.
esel,s,type,,3
nsle
sf,all,conv,3.4,20.
nsel,all
esel,all
/nopr
/gopr
autots,on
nsub,1,10,1
time,1.
outres,erase
outres,all,none
outres,nsol,all
outres,rsol,all
outres,eangl,all
outres,veng,all
outres,fflux,all
outres,cont,all
/nopr
esel,s,type,,2
esel,a,type,,3
cm,_elmisc,elem
esel,all
/gopr
outres,misc,all,_elmisc
cnvtol,heat,,.001,,1.e-006    ! Program Controlled. Set MINREF equivalent of 1e-6 Watts
! *********** WB SOLVE COMMAND ***********
! check interactive state
*get,ANSINTER_,active,,int
*if,ANSINTER_,ne,0,then
/eof
*endif
solve
/com *************** Write FE CONNECTORS ********* 
CEWRITE,file,ce,,INTE
/com,****************************************************
/com,*************** FINISHED SOLVE FOR LS 1 *************
*get,_wallasol,active,,time,wall
/post1
xmlo,ENCODING,ISO-8859-1
xmlo,parm
/xml,parm,xml
fini
/gopr
*get,_walldone,active,,time,wall
_preptime=(_wallbsol-_wallstrt)*3600
_solvtime=(_wallasol-_wallbsol)*3600
_posttime=(_walldone-_wallasol)*3600
_totaltim=(_walldone-_wallstrt)*3600
*get,_dlbratio,active,0,solu,dlbr
*get,_combtime,active,0,solu,comb
*get,_ssmode,active,0,solu,ssmm
*get,_ndofs,active,0,solu,ndof
/fclean				!clean distributed files
/com,--- Total number of nodes = %_numnode%
/com,--- Total number of elements = %_numelem%
/com,--- Element load balance ratio = %_dlbratio%
/com,--- Time to combine distributed files = %_combtime%
/com,--- Sparse memory mode = %_ssmode%
/com,--- Number of DOF = %_ndofs%
/wb,file,end               ! done with WB generated input
